27

Au     -4.940987168139330     -0.870858172062081     -0.000201339724163
Au     -4.512014765731189      1.631201636842865     -1.463477483143041
Au     -3.952196601541314      3.952105534549194     -0.000126958529736
Au     -1.632703490820035      4.511330178215230     -1.465535741802022
Au     -0.870735379841658     -4.941012253199373     -0.000294236169475
Au      2.029558877076580     -2.029521913090774     -0.000012961447938
Au     -2.904528905833113     -2.904757010240698     -2.879809011508174
Au     -0.420349954314625     -2.449927346209999     -1.435066170761668
Au     -2.449885177245526     -0.420468299600964     -1.435073550663941
Au     -0.000221699377067     -0.000331499844824     -2.870605872483691
Au      2.450441842418859      0.420270087041918     -1.435020738734660
Au      0.420269711849806      2.450423796826795     -1.435018341724183
Au      2.953964683748419      2.954036131196006     -0.000078033049443
Au      2.905184842008352      2.905096926167071     -2.879141851179293
Au     -4.770478772120787     -0.818434566705444     -2.794608345063409
Au     -2.476016163602600     -0.403254221484106     -4.344230303783899
Au     -2.088469724799313      2.088469377999206     -2.953672058840718
Au      0.404604362315995      2.475390643429147     -4.344141757678479
Au      0.818393007334482      4.770879783896840     -2.794893739919065
Au      1.631585223510191     -4.512008299125213     -1.463978524656891
Au      4.511389237663263     -1.632872497810438     -1.466012823157138
Au     -0.818319119027352     -4.770457098666594     -2.794458569388284
Au     -0.402608542279532     -2.476381791771227     -4.344370751280060
Au      2.088677583749479     -2.088587497062681     -2.953769022056179
Au      2.475744690383901      0.404032274018934     -4.344294992497609
Au      4.770826990885401      0.818495117351130     -2.794746682667572
Au      0.000000018776799      0.000000020924659     -5.589662331796875
