55

Au     -2.372433453746236     -2.334040489666149      3.115314935122317
Au      0.167320859266885     -1.975752663270773      4.874898167291937
Au     -2.343916886152275      0.057083742206641      4.772914552339536
Au      0.477457751093972      0.495426699073615      6.261481602048766
Au      0.507070634879396      0.412807446774323      3.215230203192597
Au      2.783002866189810      0.206379834925934      4.635970672888613
Au      0.651495891022617      2.976133154686659      4.625759959849312
Au      3.554268962920957      3.204459687799904      3.642067256299118
Au     -4.537947681777903     -0.562939804331178      2.897422261089970
Au     -4.731343004433588     -0.207626780937620      0.148209617145572
Au     -2.006258749805702      0.122021634216299      1.857960893283575
Au     -4.158584544303936      2.246504346799926      1.683660736359974
Au     -1.483868903768631      2.442569966020807      3.233975551215365
Au     -1.536245160855414      2.584968463513304      0.461232202024752
Au      0.976304920378636      2.875600142326629      1.817992525291668
Au     -1.047564564602840      5.193196921493639      2.249266856787482
Au      1.721769983341365      4.978893030215410      3.366629321508499
Au      1.322930504037140      5.463076031973359      0.446536563225760
Au     -3.887360033362309      2.198376328442806     -1.105385569894112
Au     -3.037916968355133      4.464295879661915      0.425009069156869
Au     -1.017666241166018      5.383068891200390     -1.272052926375010
Au     -0.926290408397447     -4.342346170587390      2.903479358605750
Au     -0.679569295253773     -4.463076031973359      0.142249724104197
Au      1.851153920239160     -4.185049097396728      1.615868187294476
Au     -0.060830925951898     -1.986387052984951      1.743741069043185
Au      2.269517381776736     -2.061153417569910      3.156886270135364
Au      2.353436604947019     -1.630537247650903      0.232841409029426
Au      4.660969538653231     -1.446709090038527      1.531626258230749
Au      2.921125311089575      0.767910806220957      1.703819526317697
Au      5.246606394117957      0.845511539900904      3.106873144065294
Au      5.856335919644279      1.415773691917002      0.656650014084793
Au     -2.416022920189808     -2.429758622883822      0.154592579184361
Au     -2.378196918005297     -1.927360544762825     -2.312413842295824
Au     -0.159113201813061     -1.921169027970025     -1.123918835341272
Au     -2.103933600589194      0.186520560563070     -1.009745905413291
Au      0.408595887855165      0.477215656117922      0.347036856136331
Au      0.310120892445527      0.541623752130371     -2.521156425523140
Au      2.823450470002970      0.832409613406772     -1.163887040442460
Au      0.878022414377126      2.940818134877451     -1.049667287019433
Au      3.151812663096209      3.025412319602966      0.436394513294281
Au      3.560863813362980      3.401526371965762     -2.662663520784361
Au     -4.856335919644279      0.221075466738879     -2.161453695942410
Au     -2.124642644036126      0.519244587699180     -3.878291436224381
Au     -1.493463695610496      2.893499006901888     -2.682288627307464
Au      1.083439181678660      3.115053717248871     -3.774522936515578
Au      1.294280847762692      5.403983447820308     -2.166387071684984
Au      1.876475119753043     -3.868903077939462     -1.450394501135813
Au      4.162073482435032     -3.810314273130317      0.068631354700100
Au      4.758983067441288     -1.459955557943030     -1.325938584313734
Au     -0.650189165679697     -4.300195359286486     -2.660606288735985
Au      0.144803627961102     -1.851585213909195     -4.016521262540991
Au      2.479813602833777     -2.091287441135182     -2.954249038112975
Au      2.694162880522309      0.811996825437256     -4.265680133634186
Au      5.117994723823598      1.308848420492768     -2.519638330432612
Au      0.477457751093972      0.495426699073615     -5.261481602048766
