55

Au     -1.267446256199983     -1.469495616811099      4.864842370471941
Au      0.288990787977009     -3.465240165534562      3.504928574029194
Au      1.681785863190657     -1.637049040539579      5.011852501469534
Au      3.002171367394210     -3.347918292824442      3.448415302542294
Au      1.722064113731283     -1.637856218116424      1.877302963187315
Au      2.958794029158635     -3.727732860638381      0.463888671039886
Au      4.547740606829624     -1.683140232972004      2.355291631858131
Au      4.403507930523965     -1.793062257573314     -1.139779499672597
Au      0.009039438247854      0.297657969404630      6.334498405850075
Au     -1.187133774611605      2.288233977801119      5.181813046926237
Au      0.273969774479331      0.502871662728343      3.459644391399426
Au      1.930729142886380      2.209655154820771      5.059349334039814
Au      3.335524103962263      0.433824539163326      3.747877522362344
Au      1.646561321232425      2.274873446233998      1.953149545710174
Au      3.056966187127196      0.284067071634182      0.501936725256241
Au      4.471649309887409      2.329916404126775      1.934081700592280
Au      5.938039841398311      0.177501511362033      0.312609911291858
Au      4.462744622634240      2.263174786928426     -0.998264403076880
Au      0.580541110014297      4.564865989604213      3.411638973895276
Au      2.973652055293281      4.200799969128081      3.282927714812671
Au      3.146635905047487      4.285965784371033      0.431416676380823
Au     -2.562621649874421     -3.695582603740304      3.319880056233473
Au     -4.051941906894990     -1.257906291437628      2.434781354372887
Au     -2.896431150780834     -3.303526448464006      0.954011711326152
Au     -1.153530970575094     -1.528833369479055      2.035980696689626
Au     -0.132524835350169     -3.796882744472461      0.554613424705336
Au     -1.326736322734275     -1.672557580592686     -0.852817398771577
Au     -0.090606966894630     -3.584283855949061     -2.312591532886041
Au      1.664437675265801     -1.652948185802072     -1.064112595625928
Au      2.757945418204327     -3.643282368962502     -2.129829353268976
Au      1.500480086805230     -1.803276092621073     -3.953062244848940
Au     -2.490176697461479      0.576157702545672      3.469785574553387
Au     -3.639980159878115      2.656522541933602      2.122849774969946
Au     -2.558017745245345      0.462723197765381      0.591599148577507
Au     -1.118250507427603      2.757484451330829      2.257904092646558
Au      0.335768718660917      0.228463046302302      0.428453652363038
Au     -1.030710151006178      2.348411101913264     -0.900127389426241
Au      0.017158796157904      0.471466409889614     -2.179622743223212
Au      1.619729724549898      2.327510658675146     -0.936839978174883
Au      3.199773230567921      0.093449253594559     -2.729531318351784
Au      1.539699348588792      2.535836140177560     -3.772344050331218
Au     -2.417004507474970      4.268556835394898      3.537012100272495
Au     -2.453919186479311      4.783336662998272      0.640226230813108
Au      0.729898603775415      4.581533037457939      0.612814015699325
Au      0.562384039204509      4.796882744472461     -2.235805328084303
Au      3.082094179557833      4.349575323732419     -2.134973595290793
Au     -4.558207079478922     -1.378166285089641     -0.600176653517708
Au     -2.869768001901369     -3.498040800047153     -1.871420656135777
Au     -1.790879912632352     -1.645669708251855     -3.848706063452271
Au     -4.938039841398311      0.923840287035351      0.763625389878157
Au     -4.445892045862786      2.619275255165667     -0.678486831090230
Au     -2.842102601770677      0.458214613018735     -2.228556637078426
Au     -1.682352935792969      2.579369994618404     -4.051203048960941
Au      0.009039438247853      0.297657969404630     -5.334498405850075
Au     -2.666156633873934      4.496892702540387     -2.074027923071887
