55

Au     -1.214996301384050     -2.920514969157797      4.657987326817194
Au      1.086019575906914     -1.550780811969573      5.577058585678802
Au     -1.960209987269004     -0.541250116366134      6.057194683811756
Au      0.372136020660012      0.966949112257470      6.492332761830732
Au      0.813672546552108      0.625810250532362      3.745975701277472
Au      2.952300377436363      0.848897386891548      5.506647345980236
Au      1.052287054662941      3.054125016970406      5.095197512201318
Au      3.702099783870422      3.167861182716581      4.092889783671087
Au     -4.368775750833864     -0.742985147164782      4.513225688965280
Au     -4.161556937376412     -0.718158055013941      1.760091943841770
Au     -1.783708021085935     -0.434874070609912      3.274333806285767
Au     -3.868334869390973      1.642862124618499      3.154464738570256
Au     -1.548978724716931      2.000053682967525      4.662937522303836
Au     -1.311041551757995      1.911562656239052      1.876927813433035
Au      1.442747974732598      2.761712165070303      2.065296517641428
Au     -0.699775900053815      4.261256910232317      3.205990114474075
Au      1.864163419532042      5.264884275655731      3.678828117574997
Au      1.069991864633368      5.577513395840514      1.056051683635953
Au     -3.645825811026893      1.651405200130110      0.353771210859164
Au     -3.164638094014613      3.992987017884514      1.854655230973929
Au     -1.651317675477150      6.030387757091024      0.603727918445729
Au      1.714300142842832     -3.950164259407055      4.313157840537307
Au     -0.991984687612812     -5.030387757091024      0.460191767880327
Au      1.601951138554500     -4.394171580899659      1.371368679730881
Au      0.537657111003790     -1.973519989532154      2.727175920637128
Au      3.591734794615483     -1.578473393558763      4.254405733683102
Au      2.635544446651291     -1.803978057840376      0.832987599152251
Au      5.178221609951889     -1.624264161429164      1.936734968930681
Au      3.181371148106058      0.501977850781513      2.160933482102208
Au      5.275315166672859      0.645663306539962      3.966980735826001
Au      5.368775750833864      0.687149125815596      0.457063796105950
Au     -2.156398003181692     -2.816322832906637      1.969634094449685
Au     -1.949484516528644     -1.748987223319307     -2.160425405170633
Au      0.033374172916042     -2.438648366527433      0.062479652016552
Au     -1.783061970884376     -0.375154799579879      0.293548437948903
Au      0.750048394413089      0.220960157921031      1.036998657133607
Au      0.320945350498799     -0.150348771410589     -1.702351938956719
Au      2.784650075217472      0.633040047762864     -0.669076312109743
Au      0.344743912136219      2.469116092281928     -0.520606599688361
Au      3.717738079462617      4.823088309852405      1.635008145859796
Au      2.786959873064835      3.531976345530167     -1.481838905482817
Au     -4.194822247246613     -0.725476281730726     -0.992786802160900
Au     -1.797143007645044      0.477384871061211     -3.837387530482816
Au     -2.052091388581580      2.978057390840750     -1.833693860152987
Au      0.069707537459725      3.106410982391342     -3.605397802353440
Au     -0.050421423968233      5.054586807135621     -1.528705125747705
Au      2.317179910696102     -3.514714681700916     -1.204133488631021
Au      4.377410506123899     -3.963676415267372      0.636088608376294
Au      4.718186771059754     -1.686240299296147     -0.929590028458014
Au     -0.140817152362095     -3.790980964127323     -2.411972386274742
Au      0.194642339685364     -1.560848103906615     -4.059680168077678
Au      2.711605485925344     -1.189548433517129     -2.817219283987558
Au      2.247141520776246      1.492294436072139     -3.267878958153598
Au      4.829406697796506      0.768569382855713     -2.265834796382902
Au      0.372136020660012      0.966949112257470     -5.492332761830732
