55

Au     -2.875125354329098     -0.918681924232576      4.374540720623640
Au      1.270687087533185     -1.109466342265689      1.809051273688094
Au      5.743005594480532      0.740010552149339      2.018245571610338
Au     -1.054708696620482      2.931272486825049      1.756436557840212
Au     -4.115415370578687      2.729441893938602      1.914150255253613
Au      5.115496706618987      1.725722110594321     -0.554451261286756
Au      1.106828694515206      1.541860435544964      2.898917584408700
Au      3.359462686778175     -2.802482562292114     -1.609977804329695
Au     -0.759737754650432     -0.687158400961960     -0.196226011492546
Au     -1.532828656824019      4.402742786095470     -1.909969399058722
Au     -0.403823903274526      3.375056754099138      4.599673368166780
Au      3.125830870855871     -3.282226803586310      1.152890390759224
Au     -0.038582767654662     -1.008070821085577     -4.688843312225332
Au     -4.234097385096064     -0.179045151579297     -2.633624870146682
Au      4.085338015627877     -1.296807195940112      3.036627743147421
Au      2.371986149589626      3.906062895989877      3.782197449976139
Au     -1.290817506407827     -3.364851402251925     -0.557471594853848
Au     -1.962423890864720      5.365466081355809      0.711294853819379
Au     -0.378912102251520     -2.076229748713767      4.091992758693033
Au      1.092723984315542      3.530854525523552     -2.573784772076662
Au      4.930824558878547     -1.360851435843628      0.354836514939451
Au      4.425114604836978      3.243817329192626      1.852434762679069
Au     -1.278203288809045      0.261814406692603      2.352774547613677
Au      1.722637384572418      1.980488971571586      5.688843312225332
Au      2.136498918008500     -3.155758256043847      3.716372101603815
Au     -3.513205443828092     -1.461722326238598     -0.344046754355931
Au     -2.586760131970589      4.588670175862045      3.340258576487670
Au      2.698187463440319      5.352324758676704      1.489917500375587
Au     -2.323497416397203      0.488995783048291     -4.466031153560602
Au     -2.280435137580977     -2.357897055402216      1.960965358879900
Au      0.670774859829112     -2.712175569957334     -2.640342049582977
Au     -2.013908376993825      1.780193084149499     -0.557409550612287
Au     -1.978670679782158     -1.787035571498077     -2.746306273737889
Au     -2.828474627141689      1.878501153805782      4.191921819669377
Au      1.989182043116551     -0.633728713442051      4.837305289725144
Au      1.293726302429651     -4.365466081355809     -0.576310479154445
Au      3.266863380659358      1.769571938504372     -2.698989373944046
Au     -4.743005594480532      1.197739453576743     -0.337289323138923
Au      3.092613866158943      3.640684742289081     -0.637649113067814
Au      3.832089451866911      1.405752150635560      3.957105940523916
Au      2.540089701658298     -0.869508563934924     -3.740446589645210
Au      1.934883875905041     -0.518118090814604     -0.996995200968421
Au     -3.940343060234904      3.919178678275897     -0.548781319647655
Au      0.167493959736001      5.330901500667260      2.615702272756626
Au      0.159296990296192     -3.719658408287109      1.835379526808593
Au     -3.487840979688129      2.493825891999080     -2.874454925762398
Au      3.095696664729849      0.836924321081443      1.109714649346453
Au      4.783011985350949     -0.467158023186094     -2.212914795106692
Au     -4.080629526883451     -0.065899220539043      2.031522889501523
Au     -0.594145714242422      0.518945193737430      5.246937176778932
Au      0.748598283600969      1.829399228523460     -0.030567575179191
Au     -0.210382647646289      0.771168570734844     -2.480662618004553
Au      0.617683259768672      4.935366801500821     -0.229156906781161
Au      1.327576389302781      1.533454297080515     -4.646454491845930
Au     -1.054708696620483      2.931272486825050     -4.197935044009055
