52

Au      1.355216011519291     -0.146119106394504     -0.519949299841265
Au     -0.788656154905762     -1.694561208321494     -1.624618644535807
Au     -0.639658731845125      1.198999347175115     -2.050325468060449
Au     -3.583361671557059     -1.289349464333923     -0.634965886931726
Au      3.128132366462183      2.125232285538195     -0.771782605107663
Au      1.990390595559917     -2.039146399977855     -2.650779864090171
Au     -3.416273062331382      1.613676360428249     -0.910838170843926
Au      2.131821741790789      0.803858040071651     -3.160596678970386
Au     -0.083514010196812     -0.626576151798708     -4.267043663282656
Au     -2.890323108060588     -0.220613180901410     -3.206181292704180
Au     -1.622561755489921      3.852995003963226     -1.123913798088746
Au      1.137088510902082      3.522568793733551     -2.269857504470434
Au      0.766641273561101     -4.240622958504510     -1.153183476819864
Au     -2.113176653932729     -3.926554640811263     -0.130584613772151
Au      4.227682221118658     -0.499234021948554     -1.597011782301361
Au     -2.902395027426381     -3.129085950768726     -2.813566835375917
Au     -2.580067651479150      2.638881671741971     -3.539088752469580
Au     -0.299562112222010     -3.454713707003282     -3.811388718227947
Au      0.066347078031979      2.289638517046926     -4.613256443440219
Au      4.849663186158971      1.889019119886873     -3.002375352250692
Au      4.504647919924600     -3.201316163787477     -2.453946033244870
Au      5.893632873232434      1.304532521011332     -0.144096372058829
Au     -6.013267248908519      0.275961141855842     -0.672142510044818
Au      4.025658376136538     -0.839498033004135     -4.450152784572192
Au     -2.125525810809574      0.840566822169251     -5.674091542956505
Au     -2.253534330758574     -2.009018165937225     -5.394228269233993
Au      0.121242837281885      6.025774795833446     -1.386125420387144
Au     -4.933662336363343     -3.675798725910104     -0.935701882526216
Au      3.480263849259378     -5.139475520037516     -0.449934275408159
Au     -5.303854663421080     -1.490793114351433     -2.902501589167617
Au     -0.799579192260818      4.856398417523713     -3.789925006762862
Au     -5.179230258943541      1.582391483780440     -3.082341330364199
Au      2.805773060386130      3.126061049630259     -4.596393232302556
Au      3.702682622995007      4.525844715912314     -2.143254431559571
Au     -1.428763797794292     -5.624733440685021     -2.348179868188915
Au      1.876301277294269     -2.427756043764886     -5.459535409205016
Au      2.208824126308276     -4.769354303786558     -3.461173629259483
Au      1.757434831593396      0.480819388795158     -6.024745893179436
Au     -4.276922075983160      4.241681699718770     -1.811717488711052
Au     -2.651121892893366      6.774109048939457     -2.145803787269190
Au     -0.363152201706251     -1.267959257713610     -7.508589076476227
Au     -3.666642335882702     -4.703568341302160     -5.094643645638427
Au     -4.184532515172044     -6.638775886864160     -0.083874154891966
Au      1.883041122179103     -7.320629906564408     -2.110322363245682
Au     -3.726789360113122      3.310139012293251     -6.108931731000293
Au      0.165862953585548      4.430893964120936     -6.532619371025487
Au      4.704189610105069      1.480196276635607     -6.259902304465523
Au     -7.164971738711613      3.304304054308784     -1.342035836525553
Au     -7.629074995376087     -2.279308053481022     -0.958622754072046
Au      6.473052938036277     -4.732469658730225     -0.143539237981887
Au      6.724057029681020      4.049814597972798     -1.745862731800720
Au      4.419440501912669     -3.873785952878423     -5.537880327077298
