55

Au      1.617502166379443      3.657502166379444      8.407493500861673
Au      3.657502166379444      1.617502166379443      8.407493500861673
Au      1.195004332758886      1.195004332758886      6.964995667241116
Au      4.080000000000000      4.080000000000000      9.849991334482230
Au      4.502497833620557      6.542497833620557      8.407493500861673
Au      6.542497833620557      4.502497833620557      8.407493500861673
Au      4.080000000000000      4.080000000000000      6.964995667241116
Au      6.964995667241115      6.964995667241115      6.964995667241116
Au     -0.844995667241115      3.235004332758886      6.964995667241116
Au     -0.422497833620557      5.697502166379444      5.522497833620559
Au      1.617502166379443      3.657502166379444      5.522497833620558
Au     -0.844995667241114      3.235004332758886      4.080000000000002
Au      2.040000000000000      6.120000000000001      6.964995667241116
Au      2.462497833620557      8.582497833620558      5.522497833620559
Au      4.502497833620557      6.542497833620557      5.522497833620558
Au      2.040000000000000      6.120000000000001      4.080000000000002
Au      4.924995667241114      9.004995667241115      6.964995667241116
Au      4.924995667241115      9.004995667241115      4.080000000000002
Au     -0.422497833620558      5.697502166379445      2.637502166379444
Au     -0.000000000000001      8.160000000000002      4.080000000000001
Au      2.462497833620556      8.582497833620558      2.637502166379444
Au      3.235004332758886     -0.844995667241115      6.964995667241116
Au      3.657502166379444      1.617502166379443      5.522497833620558
Au      5.697502166379444     -0.422497833620557      5.522497833620559
Au      3.235004332758886     -0.844995667241114      4.080000000000002
Au      6.120000000000001      2.040000000000000      6.964995667241116
Au      6.542497833620557      4.502497833620557      5.522497833620558
Au      8.582497833620558      2.462497833620557      5.522497833620559
Au      6.120000000000001      2.040000000000000      4.080000000000002
Au      9.004995667241115      4.924995667241114      6.964995667241116
Au      9.004995667241115      4.924995667241115      4.080000000000002
Au      1.195004332758886      1.195004332758886      4.080000000000001
Au      1.617502166379443      3.657502166379443      2.637502166379445
Au      3.657502166379443      1.617502166379443      2.637502166379445
Au      1.195004332758886      1.195004332758886      1.195004332758888
Au      4.080000000000000      4.080000000000000      4.080000000000001
Au      4.502497833620557      6.542497833620557      2.637502166379445
Au      6.542497833620557      4.502497833620557      2.637502166379445
Au      4.080000000000000      4.080000000000000      1.195004332758888
Au      6.964995667241115      6.964995667241115      4.080000000000001
Au      6.964995667241115      6.964995667241115      1.195004332758888
Au     -0.844995667241115      3.235004332758886      1.195004332758886
Au      1.617502166379442      3.657502166379444     -0.247493500861669
Au      2.040000000000000      6.120000000000001      1.195004332758886
Au      4.502497833620557      6.542497833620557     -0.247493500861669
Au      4.924995667241114      9.004995667241115      1.195004332758886
Au      5.697502166379445     -0.422497833620558      2.637502166379444
Au      8.160000000000002     -0.000000000000001      4.080000000000001
Au      8.582497833620558      2.462497833620556      2.637502166379444
Au      3.235004332758886     -0.844995667241115      1.195004332758886
Au      3.657502166379444      1.617502166379442     -0.247493500861669
Au      6.120000000000001      2.040000000000000      1.195004332758886
Au      6.542497833620557      4.502497833620557     -0.247493500861669
Au      9.004995667241115      4.924995667241114      1.195004332758886
Au      4.080000000000000      4.080000000000000     -1.689991334482228
