22

Au     -4.502497833620556      1.617502166379447     -1.442497833620556
Au     -1.617502166379443      4.502497833620560     -1.442497833620556
Au     -2.462497833620555     -0.422497833620555     -1.442497833620555
Au     -0.422497833620556     -2.462497833620554     -1.442497833620555
Au     -2.884995667241112     -2.884995667241111     -2.884995667241112
Au      0.422497833620559      2.462497833620559     -1.442497833620555
Au      2.462497833620558      0.422497833620560     -1.442497833620555
Au      0.000000000000002      0.000000000000003     -2.884995667241112
Au      2.884995667241117      2.884995667241117     -2.884995667241112
Au     -4.924995667241113     -0.844995667241111     -2.884995667241114
Au     -2.462497833620556     -0.422497833620554     -4.327493500861669
Au     -2.039999999999998      2.040000000000004     -2.884995667241114
Au      0.422497833620558      2.462497833620560     -4.327493500861669
Au      0.844995667241116      4.924995667241117     -2.884995667241114
Au      1.617502166379446     -4.502497833620556     -1.442497833620556
Au      4.502497833620559     -1.617502166379442     -1.442497833620556
Au     -0.844995667241112     -4.924995667241112     -2.884995667241114
Au     -0.422497833620555     -2.462497833620555     -4.327493500861669
Au      2.040000000000003     -2.039999999999997     -2.884995667241114
Au      2.462497833620559      0.422497833620559     -4.327493500861669
Au      4.924995667241117      0.844995667241117     -2.884995667241114
Au      0.000000000000002      0.000000000000003     -5.769991334482228
