28

Au     -5.250750069071687     -0.415897646385702     -0.062122100973525
Au     -4.448299263418678      2.290126509533809     -1.065890626517036
Au     -1.471353697369373      4.631263245194901     -1.024548083551625
Au     -1.164823715473413     -5.011529522771776     -0.205237250554196
Au      1.866070126314656     -2.168411585502333     -0.217374000524005
Au      4.873649241771759      0.202866941190150     -0.238877761726489
Au     -2.948383675914487     -2.663426681910593     -0.226593390324497
Au     -2.542400108266158     -0.124580664570301     -1.382597308502826
Au     -0.662724159832634     -2.302410928030772     -1.599561988661206
Au     -3.160250797039488     -2.136991409358179     -3.199174767456160
Au     -0.013605822118867      0.009418677958139     -0.000409320365626
Au      0.550423244197952      2.534313327577052     -1.277115324375776
Au      2.430099192631476      0.356483064116579     -1.494080004534156
Au     -0.098695093515814      0.222483721588140     -2.876267992671357
Au      3.107944216065002      2.540305829480373     -2.601081245319659
Au     -5.061540559159816     -0.562364344034060     -2.511858324402125
Au     -2.905374738494852      0.021277301959790     -4.324468452701117
Au     -1.694751019042888      2.734788164051090     -2.895758637721489
Au      0.753254794060012      2.974478927962692     -4.148547184118470
Au      1.070755676291127      4.977066620477475     -2.184431909043623
Au      1.383922271962864     -4.419839676511484     -1.652064130695596
Au      4.209014547500367     -2.069874378551677     -2.335593067193106
Au     -1.605754485501014     -4.928045706327167     -2.730393515883774
Au     -1.657984575129483     -3.481595748027069     -4.971903502783835
Au      1.596961890769249     -1.938201426111991     -2.875530735825651
Au      2.186256448454253      0.267608090435425     -4.337417522139505
Au      5.030741169314089      0.402392248506740     -3.021549863205331
Au      0.037479264295856      0.019346979895836     -6.564414055156373
