55

Au      0.035104176404849      2.083235720541435      2.118853832123299
Au      2.037550736756176     -0.332690055375812      2.293827445641350
Au      2.358308067319761      2.159754394253945     -0.061623306204889
Au     -0.411826543691764      0.184396345021112      4.278993793616842
Au      0.063307939183825      2.302542553711444      6.224053751230022
Au      2.201734036318291      0.161390606442802      6.062608628443044
Au      2.040000000000000      2.040000000000000      4.080000000000000
Au      2.234122149282524      2.184050695953066      8.272517966350057
Au     -0.249805098895751      3.885843205134782      0.092320043630861
Au     -0.225281935849204      6.122710170197251      1.944151881128212
Au      2.040000000000000      4.080000000000000      2.040000000000000
Au      2.028040235099566      6.392980344446698     -0.168760449339044
Au      0.004015690933794      4.079146236453994      4.016131928454017
Au      0.035389874637957      5.760712852945971      5.987248243050250
Au      2.040000000000000      4.080000000000000      6.120000000000000
Au      2.040000000000000      6.120000000000000      4.080000000000000
Au      0.381700036726142      4.144806347940778      8.327031502968413
Au      1.688160919685086      5.919638044871200      9.661835823446983
Au      1.838786341839721      8.246437972820152      2.177070547236605
Au     -0.191885705300392      8.397206841643765      4.220979513681392
Au      1.989457330973832      8.157832160549608      5.960492620863412
Au      4.034388817495277      0.198375593959696      0.153044622265169
Au      4.080000000000000      2.040000000000000      2.040000000000000
Au      6.053346305106731     -0.154420556863672      2.164030126260493
Au      6.146794291006968      1.825570377461368     -0.070070648682899
Au      4.307535580214038     -0.359618716187272      3.859082424544606
Au      4.080000000000000      2.040000000000000      6.120000000000000
Au      5.669585696569244      0.020710053095316      6.127497895570534
Au      6.120000000000000      2.040000000000000      4.080000000000000
Au      4.225672003616500     -0.119346565202823      8.244418361418116
Au      6.317270384747402      1.995261784510960      7.904661983235764
Au      4.247732288748993      4.074376346154590      0.107593065126303
Au      4.080000000000000      6.120000000000000      2.040000000000000
Au      6.120000000000000      4.080000000000000      2.040000000000000
Au      6.154382649880550      6.422096821220510      0.213209296001390
Au      4.080000000000000      4.080000000000000      4.080000000000000
Au      4.080000000000000      6.120000000000000      6.120000000000000
Au      6.120000000000000      4.080000000000000      6.120000000000000
Au      6.120000000000000      6.120000000000000      4.080000000000000
Au      4.020632298497479      4.254742064066324      8.303688659307598
Au      6.205664686567825      5.754726525287380      8.028392024818146
Au      4.038806641535004      7.812502433277958     -0.184116054510199
Au      6.080176882238376      8.297454550934612      1.783845601189757
Au      4.222924517704088      8.373518537224024      4.506856921149309
Au      6.133923589530216      8.151545689799450      6.486370464361248
Au      3.820322269825008      7.892180131126946      8.082895293684111
Au      8.079684958462515      1.887810648457646      2.210186095648604
Au      7.413853970090758      0.131596360210872      4.582356562392483
Au      8.708797000306395      2.349896172879671      5.865509621805085
Au      7.826830487496252      3.732445213092931     -0.415194388259629
Au      8.806469810776912      6.065991222474896      0.429898685834214
Au      7.905775062950566      4.036789182593148      3.957306992141842
Au      8.210922105538419      5.998317654064557      5.803727316178133
Au      8.399674294955730      3.849973916397202      8.081831700993845
Au      9.073499255534747      8.338911785105987      3.955492942979263
