49

Au      6.320302746183920      6.036284357909415      0.129537707620138
Au      6.220959915581673      6.063937218143652      2.884995667241114
Au      6.220959915581673      6.063937218143652      5.769991334482228
Au      6.329471924298867      5.971253679581159      8.561841051009290
Au      8.645547614996403      6.453353806440555      1.097514267117950
Au      8.597155160683196      6.836009855372114      4.327493500861671
Au      8.415550345578954      6.553549115105056      7.505618921887096
Au      6.175804655484366      8.575922396720078      1.157548196377866
Au      6.220959915581673      8.562416755782493      4.327493500861671
Au      6.296099519250808      8.442289017798732      7.154150418144130
Au      3.724423348034271      7.206465492273903      1.439798388672970
Au      3.844764670480151      6.836009855372115      4.327493500861671
Au      3.886537389481102      6.444075830596160      6.946851958323099
Au      4.791762737376869      4.190318128094851      1.476771489858551
Au      4.752390490203044      4.042624812095768      4.327493500861671
Au      4.608421648524103      3.950497057903811      7.423913613346568
Au      7.758252998873994      3.690016781023221      1.507314627499516
Au      7.689529340960301      4.042624812095768      4.327493500861671
Au      7.895729245459491      4.228880835919007      7.044645663458257
Au     10.911507930614475      7.674335178881289      3.080104692665586
Au     10.877515558215659      7.570950697267813      5.548724339681022
Au      8.357913835867061      9.496994557489794      3.156243672955279
Au      8.582753136367129      9.535195972589360      5.842318539491755
Au      6.091935964660649     11.133175414523018      3.192602980534308
Au      6.213794707759683     11.373825024584136      5.246042313664279
Au      4.009145171355195      9.351898806658591      2.825194197147940
Au      3.863116825787251      8.936975610090778      5.726056956914725
Au      1.539991939680977      7.903661301548881      2.781341623586385
Au      1.306870704799990      7.507731083883671      5.953071758022642
Au      2.441945467033459      4.708745408570824      2.987649153863785
Au      2.395610754971131      5.008426447430810      5.629580715706758
Au      3.218288635504863      1.942890775421453      2.592292677614690
Au      3.343045120237332      2.073523460483862      5.771014025810720
Au      6.174042488906643      1.738238257637800      2.800866602688042
Au      6.152417012276318      1.860856952203560      5.737734192149026
Au      9.238908937701837      2.398549586289989      2.919911229807482
Au      9.209608844483482      2.006423222894650      5.386237091422419
Au     10.060421810971979      4.826743491312436      3.377644089738171
Au     10.027252393105599      4.875006917790953      5.763048980541179
Au     10.739614798260812     10.335126593142423      4.477880107399026
Au      8.755361550091807     11.651091439690850      4.608052363048890
Au      3.564394457921695     11.950340349409853      4.765584626023666
Au      1.270462160352490      9.993302484318866      4.347423773879199
Au     -0.100695130823240      5.276637400339467      4.341206095822876
Au      0.695165076977672      2.888103529403384      4.143608654014910
Au      5.062377371206552     -0.156650658467247      4.263081197620536
Au      7.852232784434234     -0.246172863286791      4.372985487782497
Au     11.795722562296937      2.471888396364101      4.364420272568132
Au     12.493896390013031      5.743134660908154      4.080103358686054
