102

Au      6.608929499947459      6.349897214213310     -0.252124650715039
Au      6.345293934736291      6.217856477112560      2.908591754394261
Au      6.365507006956559      6.164850958450815      5.599369319026906
Au      6.163085587733395      6.009630319414854      8.621845104428729
Au      6.090896252748653      6.197673426270301     11.746562717786272
Au      6.413073002072115      6.093338126451051     14.521918781927857
Au      8.862146543789043      6.988185006627583      1.565409981809533
Au      8.835374786955573      6.871121291447825      4.412986372315941
Au      8.535407190341383      6.794233714445377      7.261504224074019
Au      8.438255628055805      6.908003084417647     10.250904011524852
Au      8.482917164993943      7.068333253798706     13.097892190851841
Au      6.535466413319885      8.704905647785983      1.453757195183806
Au      6.320985331163407      8.711923161205732      4.285589917826679
Au      6.196751741060199      8.543875105141352      7.076789451661430
Au      6.033936476273152      8.622623279687136     10.129447483034461
Au      6.129836202305954      8.716058942164416     13.603079997251520
Au      4.204000164420894      7.088727616099044      1.201811733451702
Au      3.851521144498430      6.916621618922806      4.110496006399798
Au      3.877699760344345      6.832322857355252      6.931442639254136
Au      3.753765693639485      6.888646282592773     10.358129056977578
Au      3.865867106722604      6.888420200343113     13.622942262550811
Au      4.890478048010388      4.380755791764687      1.063491926494551
Au      4.798628956391594      4.127261763472067      3.977203488267769
Au      4.725006687584514      4.116750270553148      6.911078589993599
Au      4.588551047101638      4.143191461848768     10.400168425770330
Au      4.807992633790195      4.151807186496754     13.412727860781260
Au      7.836009912836273      4.196641458500033      1.252995368100181
Au      7.698748611289438      4.089673191333097      4.172288692220292
Au      7.536462486206568      4.020164178716680      7.013992831464533
Au      7.570821298197639      4.153603778979343     10.317035697452244
Au      7.728659727247819      4.101605649348353     13.096299619401185
Au     11.253120967438306      8.618075214470034      1.697089855146020
Au     11.118517279826037      7.980006544499076      5.841271743475144
Au     10.845516704960763      7.566851389791608      8.769904757199916
Au     10.947606122248517      7.671747367190202     11.669603463637417
Au      8.808096116721631      9.423145622181233      3.023318433955164
Au      8.658353542207342      9.485524095631893      5.832197929341405
Au      8.512786854929246      9.358044071715371      8.723923886104277
Au      8.484247523412977      9.453831818796234     11.614967425311773
Au      6.097518804569911     11.342496397491468      2.363649975343086
Au      6.160836356890875     11.163302001508034      5.501331860774844
Au      5.761110063909014     11.474456683334475      9.213360670147493
Au      6.189368811204131     11.267726781134408     12.247166260147194
Au      3.934870829557553      9.500257057218970      2.739544334444465
Au      3.828489242045356      9.447115505686726      5.532646034658233
Au      3.806467730996256      9.305576721656131      8.433175899920428
Au      3.765550136553782      9.496788525367371     12.115601632818448
Au      1.606057921065602      7.876367384885428      2.522883945129192
Au      1.353635343643658      7.676969085410030      5.503805190745948
Au      0.952425903545152      7.970549242010311      9.407089877239386
Au      1.446425439769198      7.771917666140023     12.269459574897954
Au      2.473316402119010      5.078042508068654      2.452141563519754
Au      2.339658732111594      4.923710590634990      5.424111079222257
Au      2.246964309917358      4.906992154224755      8.700587990363321
Au      2.390240831139859      5.017843294450377     12.121624949368019
Au      2.992482954336471      1.358821764783314      2.337715472896836
Au      3.233518431725044      2.195154281142647      5.357881414817423
Au      3.058787270301022      1.489651822890267      9.101841128917927
Au      3.241301028263113      2.270912614246434     12.013030935657715
Au      6.150336303801012      2.189446387915061      2.405360706789360
Au      6.109722019068309      2.045293173529842      5.435204179733910
Au      6.114150603729825      2.028045994856172      9.083725275468222
Au      6.114764834275389      2.067202514859678     12.022094118751035
Au      9.407573991257348      2.116315904194912      2.256422242200970
Au      8.958396242443291      1.887733849687444      5.355982534262146
Au      9.013151618036646      2.140644417772103      9.038924284805342
Au      9.236159089866623      1.944325979908960     12.094186035963476
Au     10.193145341005698      4.891924360147649      2.962655121710346
Au     10.062774822656340      4.741717590907498      5.868104740802548
Au      9.976799400349526      4.865749042143245      8.778048891012512
Au     10.020601697065048      5.002551767882348     11.774093080249932
Au     11.206885477019643     10.349463008654554      4.173633218315012
Au     11.225574376932697     10.499348289390252      7.184954583380799
Au     10.964640025217722     10.136957718355159     10.057227467913954
Au      8.614255309856652     11.946688934590567      4.313657554414814
Au      8.581619516384801     11.824832699758176      7.159307390895615
Au      8.497794227754826     11.853732247859915     10.044486164050987
Au      3.753865528917341     11.992072504818315      4.127401709217096
Au      3.863713332151411     11.854498269446671      6.990368247994747
Au      3.928176580207644     12.480747129358871     10.921177358990935
Au      1.362638916055882     10.319083311048994      4.057735520621013
Au      1.411656644884627     10.106500454918024      7.126133937335362
Au      1.896146778794066     10.622164741150323     10.125922546843503
Au     -0.130556528790912      5.644669908296179      4.137994911971592
Au     -0.033498267459869      5.686630619319375      7.268214717420609
Au     -0.158716387546189      5.677288955888306     10.783399695704821
Au      0.950157281442248      2.965109662856201      3.744568630623138
Au      0.950589367786088      2.610689045131340      7.484727476230362
Au      0.978914762171221      3.123468686250661     10.463090424653588
Au      4.749625014237371     -0.067851923388398      4.131701063750810
Au      4.652244724893304      0.168544379755734      7.059714046793408
Au      4.860557447095871     -0.118153185185557     10.489682431745191
Au      7.580329695740439      0.166316568846867      3.809023297800825
Au      7.558351026827758      0.129011522254286      7.244933467435933
Au      7.730388933397077      0.109607726228970     10.535813753433265
Au     11.446284804864117      2.766312353500088      4.261257706758347
Au     11.382787530035902      2.808095843465109      7.408941252296977
Au     11.445018239448983      2.930388102674806     10.429561338416896
Au     12.328228073274790      5.726879936850557      4.474374860994558
Au     12.410638777147833      5.525246779841467      7.258399200544947
Au     12.386860695648465      5.690267335186197     10.195577840990294
Au      8.987240822870378      9.588951196126382      0.246860696681174
