55

Au     -4.267460000000000     -1.537760000000000      0.478466000000000
Au     -1.416660000000000      4.528950000000000      2.563320000000000
Au     -1.508910000000000      1.895820000000000      3.816040000000000
Au     -0.393756000000000      2.814340000000000     -3.010710000000000
Au     -2.767760000000000      0.841231000000000      0.211344000000000
Au      1.922200000000000     -0.413858000000000     -0.319678000000000
Au     -0.390922000000000     -4.827180000000000     -1.895710000000000
Au     -0.741396000000000     -4.620470000000000      0.927452000000000
Au     -3.440590000000000     -0.028609500000000      2.723980000000000
Au     -5.012360000000000      0.609682000000000     -1.439410000000000
Au     -2.841190000000000     -3.522010000000000     -0.586587000000000
Au      3.439600000000000     -0.910675000000000      3.608750000000000
Au      3.289970000000000      3.590820000000000      1.906490000000000
Au     -1.110240000000000      0.454166000000000     -4.033800000000000
Au     -3.608490000000000      5.072370000000000      0.831925000000000
Au      4.799510000000000     -0.282567000000000      0.303379000000000
Au      1.501370000000000      0.453555000000000     -3.345910000000000
Au      3.750590000000000     -4.764790000000000      0.034607000000000
Au      1.905940000000000     -4.524610000000000      2.083840000000000
Au     -0.473589000000000     -4.030450000000000      3.501660000000000
Au      1.327600000000000     -2.459870000000000      4.572510000000000
Au     -2.832670000000000      1.958470000000000     -2.501620000000000
Au     -4.528370000000000      3.035830000000000     -0.707508000000000
Au      0.987048000000000      0.406925000000000      4.237590000000000
Au     -2.495390000000000     -2.947200000000000      2.089480000000000
Au     -2.789990000000000     -1.000900000000000     -2.035820000000000
Au      0.017456000000000     -1.702350000000000     -2.306460000000000
Au      1.371060000000000     -5.907550000000000     -0.257924000000000
Au     -0.316019000000000      0.649141000000000      1.771920000000000
Au     -0.507318000000000      0.767436000000000     -1.263670000000000
Au     -5.410280000000000      1.091550000000000      1.076060000000000
Au      0.947026000000000      2.987850000000000      3.119520000000000
Au      2.178820000000000      2.777590000000000     -2.483160000000000
Au      2.578030000000000     -2.079270000000000     -3.263960000000000
Au      0.669510000000000     -1.433370000000000     -4.997230000000000
Au     -3.386930000000000      2.679240000000000      2.214050000000000
Au      2.976220000000000      4.787370000000000     -0.539237000000000
Au     -1.405760000000000      3.194360000000000     -0.058584800000000
Au      0.942727000000000     -1.851380000000000      2.145700000000000
Au      2.707430000000000     -4.680110000000000     -2.426160000000000
Au     -1.067910000000000     -1.561020000000000      0.226099000000000
Au      1.162590000000000      2.513400000000000      0.161594000000000
Au     -1.367560000000000      6.088360000000000      0.042145300000000
Au      0.424129000000000      4.831490000000000     -1.733020000000000
Au      4.083020000000000      0.247228000000000     -2.255880000000000
Au      2.699850000000000      0.914169000000000      1.973440000000000
Au     -2.774020000000000      4.828190000000000     -1.843260000000000
Au      0.515626000000000     -3.867560000000000     -4.215270000000000
Au      0.970527000000000      5.113780000000000      1.113930000000000
Au      1.450480000000000     -3.186510000000000     -0.496832000000000
Au      3.556550000000000     -2.401830000000000      1.345240000000000
Au      4.138220000000000     -2.477600000000000     -1.285750000000000
Au     -1.985400000000000     -3.059840000000000     -3.323350000000000
Au     -1.339070000000000     -1.200320000000000      3.909700000000000
Au      3.866910000000000      2.146380000000000     -0.363729000000000
