55

Au     -4.001516576403947     -2.318584286655092     -0.747976855180760
Au     -1.849662664229617     -3.541180511076908      1.095231565538510
Au     -3.827400926000163     -1.806574504252483      2.088024563185724
Au     -2.029398005001521     -3.155616193232790      3.915017084609405
Au     -0.766455576388579     -1.313252781001375      2.355056408211049
Au      0.707035592513121     -3.490479728011759      3.180307233591066
Au     -2.801360225461631     -0.477367441590800      4.366233390692921
Au      1.768954580479925      0.145885255443042      5.292471544393257
Au     -4.699859060765967      0.202246370077775      0.234374365346063
Au     -4.575846199136919      2.324870968829977     -1.690328093700374
Au     -2.527622899854898      0.563804595644781      1.390134574260361
Au     -3.989154564366653      2.937082288170386      0.967653372904670
Au     -2.965921284979852      2.153894961143720      3.568138513894499
Au     -1.119508456583809      3.058464509818138      1.713417726722517
Au     -0.222080728686252      1.147729209740164      3.478407949943787
Au     -0.934942399101581      3.850710402042846      4.353077179378973
Au     -0.417497398606602      1.761455953795029      6.171546690867608
Au      1.661762514905303      2.904955223486796      4.741217552093522
Au     -1.958036845746535      5.089745484489322      0.099298397168059
Au     -3.033564055867814      4.848840059606152      2.802369590452218
Au      0.527076293842128      5.326019876633506      1.650061770986374
Au     -1.767620295546191     -3.970453104172166     -1.619994551317366
Au     -0.967180713783369     -1.893306074834320     -3.214558849487004
Au      0.619219873034235     -4.154822870201221     -2.293504501112377
Au     -1.286538825887868     -1.311571518802812     -0.492188217351556
Au      0.808336246263616     -4.501927817562160      0.520412751167801
Au      1.603545734687166     -0.994159699742196     -0.994015324781198
Au      3.222734645572217     -3.267529272897804      2.100994284083457
Au      1.861635447040775     -0.440284571358191      2.583072240127260
Au      2.626362777503148     -2.414065130566656      4.364698534962879
Au      4.712076618038652     -1.027697140169410      2.569272551392291
Au     -3.055624802023517     -0.073199160470101     -2.206623201403586
Au     -0.417497398606602      1.761455953795029     -5.171546690867608
Au     -0.204960834897974      0.621610358100814     -2.385210983218884
Au     -1.980381955329351      2.127616431849016     -0.829675322040774
Au      0.104799431018905      0.737854920283235      0.654936432030290
Au      1.917274804818576      2.135774404238236     -0.949940931956559
Au      3.041903617163645      0.702574903288918      0.737095488241121
Au      1.778014893657863      2.491923686112395      1.923323640314504
Au      3.719406508495907      1.305952853942788      3.600671245183884
Au      4.628153167875643      2.872535133527620      1.513337139660861
Au     -2.865410298014977      4.469892496923590     -2.443209478823093
Au     -0.065129010459756      3.393158857510470     -2.826077820177158
Au      0.580244779579433      5.501927817562160     -1.158197000816572
Au      2.772426452258225      4.482346556475379      0.195358782369404
Au      3.030204096795420      4.704484234196100      2.965388713312797
Au      3.133634682396304     -1.967615703285966     -3.220539509461717
Au      2.994582945685767     -3.628931975189610     -0.989837531678124
Au      4.196669353561483     -1.672950064905394     -0.046312541139200
Au      1.106560765282372     -0.677068793860011     -4.585985774407403
Au      1.997868811289424      1.797551803825513     -3.704874373539602
Au      3.814340643362276      0.385014401370635     -1.931735168684614
Au      4.587871267986294      2.934482957324055     -1.232976107080136
Au      5.699859060765967      0.672608525110793      0.093712579031283
Au      2.587607866110423      4.280497012334038     -2.599893941295047
