28

Au     -4.319334603135807     -2.965790288888786     -1.292506147664355
Au     -5.017677087497827     -0.444959632155919     -0.310154927137531
Au     -4.893664225868778      1.677664966596283     -2.234857386183968
Au     -2.275854872478395      4.442539482255627     -0.445230895315535
Au     -2.085438322278051     -4.617659106405860     -2.164523843800960
Au     -1.284998740515228     -2.540512077068014     -3.759088141970599
Au      0.301401846302376     -4.802028872434915     -2.838033793595972
Au     -1.604356852619728     -1.958777521036506     -1.036717509835151
Au      0.490518219531757     -5.149133819795855     -0.024116541315794
Au      1.285727707955307     -1.641365701975890     -1.538544617264792
Au     -3.373442828755377     -0.720405162703795     -2.751152493887181
Au     -0.735315425338462      1.114249951561334     -5.716075983351202
Au     -0.522778861629834     -0.025595644132880     -2.929740275702478
Au     -2.298199982061210      1.480410429615322     -1.374204614524369
Au      1.599456778086717      1.488568402004542     -1.494470224440153
Au     -3.183228324746837      3.822686494689896     -2.987738771306687
Au     -0.382947037191615      2.745952855276776     -3.370607112660753
Au      0.262426752847573      4.854721815328466     -1.702726293300167
Au      2.454608425526366      3.835140554241685     -0.349170510114190
Au      2.815816655664444     -2.614821705519660     -3.765068801945312
Au      2.676764918953908     -4.276137977423304     -1.534366824161718
Au      3.878851326829624     -2.320156067139088     -0.590841833622795
Au      0.788742738550512     -1.324274796093705     -5.130515066890998
Au      1.680050784557565      1.150345801591818     -4.249403666023196
Au      3.496522616630417     -0.262191600863059     -2.476264461168209
Au      4.270053241254435      2.287276955090360     -1.777505399563731
Au      5.382041034034108      0.025402522877099     -0.450816713452312
Au      2.269789839378563      3.633291010100344     -3.144423233778641
