22

Au     -4.500886145670291      1.616922854329710     -1.441980938563509
Au     -1.616922854329710      4.500886145670293     -1.441980938563509
Au     -2.883962584233800     -2.883962584233801     -2.883963291340581
Au     -0.422346645670290     -2.461616645670292     -1.441981645670290
Au     -2.461616645670291     -0.422346645670291     -1.441981645670290
Au      0.000000000000000     -0.000000000000000     -2.883963291340581
Au      2.461616645670291      0.422346645670291     -1.441981645670290
Au      0.422346645670291      2.461616645670291     -1.441981645670290
Au      2.883962584233801      2.883962584233800     -2.883963291340581
Au     -4.923232084233801     -0.844693084233801     -2.883962584233800
Au     -2.461616145670291     -0.422347145670291     -4.325944229904090
Au     -2.039269500000000      2.039269500000000     -2.883962584233800
Au      0.422347145670291      2.461616145670291     -4.325944229904090
Au      0.844693084233801      4.923232084233801     -2.883962584233800
Au      1.616922854329710     -4.500886145670291     -1.441980938563509
Au      4.500886145670293     -1.616922854329710     -1.441980938563509
Au     -0.844693084233800     -4.923232084233801     -2.883962584233800
Au     -0.422347145670291     -2.461616145670291     -4.325944229904090
Au      2.039269500000001     -2.039269500000000     -2.883962584233800
Au      2.461616145670291      0.422347145670291     -4.325944229904090
Au      4.923232084233801      0.844693084233800     -2.883962584233800
Au      0.000000000000000     -0.000000000000000     -5.767925168467600
