55

Au     -2.405184820412810     -2.405096898718153      3.379141565406234
Au      0.095395694402340     -1.975390506853226      4.844141631710572
Au     -1.975744654386306      0.095967659834228      4.844294899058676
Au      0.500000023869142      0.500000115582686      6.089662453316266
Au      0.500221594059072      0.500331552383733      3.370605878037677
Au      2.976016081813085      0.903254315546117      4.844229928914118
Au      0.902608393364236      2.976381808711114      4.844370705922505
Au      3.404529064080057      3.404757110342123      3.379808646539110
Au     -4.270827074758198     -0.318495117370221      3.294746511445541
Au     -4.440987163046987     -0.370858077404054      0.499798538756446
Au     -1.950441759701365      0.079730023536572      1.935020824899206
Au     -4.011388967122087      2.132872624213469      1.966012818812853
Au     -1.588677400178741      2.588587676492706      3.453768881946358
Au     -1.529559060334905      2.529521975685852      0.500012797295771
Au      0.920350046394918      2.949927320147272      1.935066097121595
Au     -1.131585204176555      5.012008436315767      1.963978383132428
Au      1.318319049568208      5.270457087063258      3.294458526859889
Au      1.370735263329803      5.441012158541346      0.500294162529018
Au     -4.012014760638847      2.131201731500892     -0.963477604662432
Au     -3.452196596448972      4.452105629207221      0.499872919950873
Au     -1.132703485727692      5.011330272873257     -0.965535863321413
Au     -0.318393054532205     -4.270879925240159      3.294893686078471
Au     -0.370735374749315     -4.441012158541346      0.499705642311134
Au      2.132703405241052     -4.011330037935769      1.965535767154164
Au      0.079730148465984     -1.950423862655750      1.935018352936107
Au      2.588469755802622     -1.588469159142581      3.453671627401662
Au      2.529558882168923     -1.529521818432747      0.499986917032671
Au      5.012014841798381     -1.131201250919240      1.963477095543057
Au      2.949885253703100      0.920468523916983      1.935073402067783
Au      5.270478856827626      1.318434593270596      3.294608322334420
Au      5.440987163046987      1.370858248826465      0.500201246283477
Au     -2.453964649268224     -2.454035700857231      0.500077776970620
Au     -2.404528900740770     -2.404756915582670     -2.379809133027565
Au      0.079650050777718     -1.949927251551971     -0.935066292281059
Au     -1.949885172153183      0.079531795057063     -0.935073672183332
Au      0.500000072810522      0.500000134523428      0.499999912318819
Au      0.499778305715276      0.499668594813203     -2.370605994003082
Au      2.950441847511201      0.920270181699945     -0.935020860254051
Au      0.920269716942149      2.950423891484823     -0.935018463243574
Au      3.453964688840762      3.454036225854034      0.499921845431166
Au      3.405184847100695      3.405097020825098     -2.379141972698684
Au     -4.270478767028444     -0.318434472047417     -2.294608466582800
Au     -1.976016158510257      0.096745873173921     -3.844230425303290
Au     -1.588469719706970      2.588469472657233     -2.453672180360109
Au      0.904604367408338      2.975390738087174     -3.844141879197870
Au      1.318393012426825      5.270879878554867     -2.294893861438456
Au      2.131585228602534     -4.012008204467186     -0.963978646176282
Au      4.452196471831786     -3.452105296401194      0.500126889128283
Au      5.011389242755605     -1.132872403152410     -0.966012944676529
Au     -0.318319113935009     -4.270457004008566     -2.294458690907675
Au      0.097391462812811     -1.976381697113200     -3.844370872799451
Au      2.588677588841821     -1.588587402404654     -2.453769143575570
Au      2.975744695476243      0.904032368676962     -3.844295114017000
Au      5.270826995977743      1.318495212009157     -2.294746804186963
Au      0.500000023869142      0.500000115582686     -5.089662453316266
