29

Au     -4.942926653564141     -0.863664080517909     -0.014225773965267
Au     -2.028382546104476      2.029497068157453     -0.002325520786341
Au      0.897559643277427      4.931178045835781     -0.007049762416196
Au     -4.504832846388767      1.653390044214663     -1.469186984185692
Au     -3.942597821459584      3.969371451874804     -0.002412148511074
Au     -1.610348296257549      4.509512975822418     -1.457018477206222
Au     -0.876490085813991     -4.941792222291939     -0.003327526544307
Au     -2.953780421864062     -2.955408931090671     -0.001835916570691
Au     -2.918363622258143     -2.902204801855536     -2.884539568196976
Au     -0.429794527049275     -2.444009493978919     -1.435314240430878
Au     -2.458440192112532     -0.425853271555186     -1.433604654582153
Au     -0.000482440122745     -0.003541504868282     -2.865915534476749
Au      2.444213333525349      0.411205128355716     -1.431985881701529
Au      0.430260388550524      2.444137608211461     -1.431524071080717
Au      2.956493674379890      2.942794976219641     -0.008190971264109
Au      2.914894078049561      2.892908871736264     -2.878360119116843
Au     -4.764258924704668     -0.791893147522115     -2.789490239230869
Au     -2.470618735803509     -0.412496779119982     -4.352679284434210
Au     -2.086170719715848      2.079660103211658     -2.950247038469914
Au      0.404324160846445      2.465844795256119     -4.350640780167961
Au      0.832221946947036      4.758298211939611     -2.810675978688645
Au      1.626759768127938     -4.515594613016802     -1.463961234760783
Au      4.510919926966184     -1.634537711897771     -1.463000892626606
Au     -0.838830117146150     -4.770876652269603     -2.799864243949150
Au     -0.402404027472471     -2.469089031572469     -4.351472513046570
Au      2.086864795160582     -2.095558320994733     -2.950120690969853
Au      2.496109407000209      0.406886377263531     -4.326468674535207
Au      4.777796599460046      0.812177786193807     -2.781230124471774
Au     -0.001113353577475     -0.000911266643868     -5.591511362234765
