44

Au      0.099342830602247      6.092347139765763      6.249537707620138
Au      2.344605971281605      4.033169325055333      6.073172608610163
Au      2.355842563101478      6.273486945830581      3.986105122813010
Au      2.148512008717193      6.027316461437507      8.066854049285949
Au      2.088392454313207      7.777343951068440      5.775016433497393
Au      3.967542494151806      1.837433775933115      6.182849466519054
Au      5.938395184895757     -0.282460740267058      6.413129753784310
Au      6.074844739902692      2.053505640937585      3.795050362757309
Au      6.011123455094963      2.062184517941973      7.929801284515539
Au      4.155139603669134      5.999872262016238      1.981661250041345
Au      5.999658677554120      4.450455636901788      2.037300555052413
Au      5.908457814208819      6.284508982420637     -0.244168729994204
Au      4.121772719000951      3.688065975224045      3.814362790220314
Au      4.080000000000000      6.119999999999999      6.119999999999999
Au      6.119999999999999      4.080000000000000      6.119999999999999
Au      6.119999999999999      6.119999999999999      4.080000000000000
Au      4.148723657913692      3.727391968927453      8.224816793878960
Au      4.002983543916737      5.984615599938808     10.322335257768176
Au      6.326199904499189      4.266256023823240     10.032156495355473
Au      6.119999999999999      6.119999999999999      8.160000000000000
Au      6.024165152430942      6.082868204667236     12.018733005198795
Au      5.880758675183865      8.322505164478839      2.311248005714165
Au      4.065597975683933      8.360706579578405      4.152327205009527
Au      3.950976049078975     10.272279121101684      6.427607313293193
Au      6.119999999999999      8.160000000000000      6.119999999999999
Au      6.284380500875044     10.217409413647635      4.020198529906827
Au      4.098352155307101      7.762486217079822      8.116065622432497
Au      6.191422514302348      8.455578808948303     10.096345956345271
Au      5.958301279421361     10.099648591283094      8.343080423540416
Au      6.185750221931936     12.134047959246592      6.222653486622670
Au      8.179415509869608      2.233728998106578      5.979589381224529
Au      8.094467570680447      6.041578369373568      1.747297010373576
Au      8.219224055412916      4.132211054435978      4.081022691328492
Au      8.160000000000000      6.119999999999999      6.119999999999999
Au     10.131457096694648      3.919544546155676      6.087742857666798
Au     10.280810171362909      6.497237180242105      4.114915562566368
Au      8.211510078144553      4.065110816846767      7.776245756940192
Au      8.154697224910157      6.132046041988205     10.692648422497058
Au     10.161527807043777      6.180309468466722      8.153057646058951
Au      7.926264392476094      8.388564562903005      4.230386606537355
Au      8.318206389408610     10.018122509041053      6.400558862187219
Au      9.919629787441545      8.277371418760055      6.558091125161995
Au      7.961892734973863      8.046740454079446      8.179930273017529
Au     12.139304869176760      5.809867313786773      6.133712594961205
