44

Au      0.000000000000000      6.119999999999999      6.119999999999999
Au      2.040000000000000      4.080000000000000      6.119999999999999
Au      2.040000000000000      6.119999999999999      4.080000000000000
Au      2.040000000000000      6.119999999999999      8.160000000000000
Au      2.040000000000000      8.160000000000000      6.119999999999999
Au      4.080000000000000      2.040000000000000      6.119999999999999
Au      6.119999999999999      0.000000000000000      6.119999999999999
Au      6.119999999999999      2.040000000000000      4.080000000000000
Au      6.119999999999999      2.040000000000000      8.160000000000000
Au      4.080000000000000      6.119999999999999      2.040000000000000
Au      6.119999999999999      4.080000000000000      2.040000000000000
Au      6.119999999999999      6.119999999999999      0.000000000000000
Au      4.080000000000000      4.080000000000000      4.080000000000000
Au      4.080000000000000      6.119999999999999      6.119999999999999
Au      6.119999999999999      4.080000000000000      6.119999999999999
Au      6.119999999999999      6.119999999999999      4.080000000000000
Au      4.080000000000000      4.080000000000000      8.160000000000000
Au      4.080000000000000      6.119999999999999     10.200000000000001
Au      6.119999999999999      4.080000000000000     10.200000000000001
Au      6.119999999999999      6.119999999999999      8.160000000000000
Au      6.119999999999999      6.119999999999999     12.240000000000000
Au      6.119999999999999      8.160000000000000      2.040000000000000
Au      4.080000000000000      8.160000000000000      4.080000000000000
Au      4.080000000000000     10.200000000000001      6.119999999999999
Au      6.119999999999999      8.160000000000000      6.119999999999999
Au      6.119999999999999     10.200000000000001      4.080000000000000
Au      4.080000000000000      8.160000000000000      8.160000000000000
Au      6.119999999999999      8.160000000000000     10.200000000000001
Au      6.119999999999999     10.200000000000001      8.160000000000000
Au      6.119999999999999     12.240000000000000      6.119999999999999
Au      8.160000000000000      2.040000000000000      6.119999999999999
Au      8.160000000000000      6.119999999999999      2.040000000000000
Au      8.160000000000000      4.080000000000000      4.080000000000000
Au      8.160000000000000      6.119999999999999      6.119999999999999
Au     10.200000000000001      4.080000000000000      6.119999999999999
Au     10.200000000000001      6.119999999999999      4.080000000000000
Au      8.160000000000000      4.080000000000000      8.160000000000000
Au      8.160000000000000      6.119999999999999     10.200000000000001
Au     10.200000000000001      6.119999999999999      8.160000000000000
Au      8.160000000000000      8.160000000000000      4.080000000000000
Au      8.160000000000000     10.200000000000001      6.119999999999999
Au     10.200000000000001      8.160000000000000      6.119999999999999
Au      8.160000000000000      8.160000000000000      8.160000000000000
Au     12.240000000000000      6.119999999999999      6.119999999999999
