55

Au      4.908247792861572      4.908247792861572      4.908247792861572
Au      7.362371689292358      4.908247792861572      3.391515812264020
Au      7.362371689292358      4.908247792861572      6.424979773459125
Au      2.454123896430786      4.908247792861572      3.391515812264020
Au      2.454123896430786      4.908247792861572      6.424979773459125
Au      3.391515812264020      7.362371689292358      4.908247792861572
Au      6.424979773459125      7.362371689292358      4.908247792861572
Au      3.391515812264020      2.454123896430786      4.908247792861572
Au      6.424979773459125      2.454123896430786      4.908247792861572
Au      4.908247792861572      3.391515812264020      7.362371689292358
Au      4.908247792861572      6.424979773459125      7.362371689292358
Au      4.908247792861572      3.391515812264020      2.454123896430786
Au      4.908247792861572      6.424979773459125      2.454123896430786
Au      9.816495585723144      4.908247792861572      1.874783831666467
Au      9.816495585723144      4.908247792861572      4.908247792861572
Au      9.816495585723144      4.908247792861572      7.941711754056677
Au      0.000000000000000      4.908247792861572      1.874783831666467
Au      0.000000000000000      4.908247792861572      4.908247792861572
Au      0.000000000000000      4.908247792861572      7.941711754056677
Au      1.874783831666467      9.816495585723144      4.908247792861572
Au      4.908247792861572      9.816495585723144      4.908247792861572
Au      7.941711754056677      9.816495585723144      4.908247792861572
Au      1.874783831666467      0.000000000000000      4.908247792861572
Au      4.908247792861572      0.000000000000000      4.908247792861572
Au      7.941711754056677      0.000000000000000      4.908247792861572
Au      4.908247792861572      1.874783831666467      9.816495585723144
Au      4.908247792861572      4.908247792861572      9.816495585723144
Au      4.908247792861572      7.941711754056677      9.816495585723144
Au      4.908247792861572      1.874783831666467      0.000000000000000
Au      4.908247792861572      4.908247792861572      0.000000000000000
Au      4.908247792861572      7.941711754056677      0.000000000000000
Au      7.362371689292358      3.391515812264020      8.879103669889911
Au      7.362371689292358      6.424979773459125      8.879103669889911
Au      7.362371689292358      3.391515812264020      0.937391915833234
Au      7.362371689292358      6.424979773459125      0.937391915833234
Au      2.454123896430786      3.391515812264020      8.879103669889911
Au      2.454123896430786      6.424979773459125      8.879103669889911
Au      2.454123896430786      3.391515812264020      0.937391915833234
Au      2.454123896430786      6.424979773459125      0.937391915833234
Au      8.879103669889911      7.362371689292358      3.391515812264020
Au      8.879103669889911      7.362371689292358      6.424979773459125
Au      0.937391915833234      7.362371689292358      3.391515812264020
Au      0.937391915833234      7.362371689292358      6.424979773459125
Au      8.879103669889911      2.454123896430786      3.391515812264020
Au      8.879103669889911      2.454123896430786      6.424979773459125
Au      0.937391915833234      2.454123896430786      3.391515812264020
Au      0.937391915833234      2.454123896430786      6.424979773459125
Au      3.391515812264020      8.879103669889911      7.362371689292358
Au      6.424979773459125      8.879103669889911      7.362371689292358
Au      3.391515812264020      0.937391915833234      7.362371689292358
Au      6.424979773459125      0.937391915833234      7.362371689292358
Au      3.391515812264020      8.879103669889911      2.454123896430786
Au      6.424979773459125      8.879103669889911      2.454123896430786
Au      3.391515812264020      0.937391915833234      2.454123896430786
Au      6.424979773459125      0.937391915833234      2.454123896430786
