55

Au      4.908247792861572      4.908247792861572      4.908247792861572
Au      7.362371689292358      4.908247792861572      3.391515812264020
Au      7.362371689292358      4.908247792861572      6.424979773459125
Au      2.454123896430786      4.908247792861572      3.391515812264020
Au      2.454123896430786      4.908247792861572      6.424979773459125
Au      3.391515812264020      7.362371689292358      4.908247792861572
Au      6.424979773459125      7.362371689292358      4.908247792861572
Au      3.391515812264020      2.454123896430786      4.908247792861572
Au      6.424979773459125      2.454123896430786      4.908247792861572
Au      4.908247792861572      3.391515812264020      7.362371689292358
Au      4.908247792861572      6.424979773459125      7.362371689292358
Au      4.908247792861572      3.391515812264020      2.454123896430786
Au      4.908247792861572      6.424979773459125      2.454123896430786
Au      9.855867832896969      5.055941108860655      1.909057487904461
Au      9.793365929245496      4.848027053743714      4.612543394788087
Au      9.672526744044204      4.816120038669615      8.153136199300461
Au      0.068723657913692      4.555639761789026      1.939600625545426
Au     -0.077016456083263      4.772863392800381      5.030583050629746
Au      0.206199904499190      5.094503816684812      7.773868249412150
Au      1.812941356496224      9.882748272003857      5.103356818286044
Au      4.812412945292515      9.779363790390381      4.686980798060366
Au      7.702470429240543      9.979000750201983      5.179495798575736
Au      1.860381807350400      0.200706579578405      4.980574997871099
Au      4.779223841940548      0.072279121101683      5.215855106154766
Au      7.934546546234687      0.312928731162801      4.384298772043623
Au      5.072628293736617      1.892193245314101      9.756694115629971
Au      4.926599948168673      4.510734009941394      9.772561208155642
Au      4.979670307163921      8.237290563004981      9.712841542068414
Au      4.746549072282935      1.774432422949560      0.183080423540415
Au      4.973998014793509      4.802295752108164      0.102653486622671
Au      4.927663302731180      8.135440752163255     -0.140410618775470
Au      7.296839259972804      3.313094181637588      8.586400680263488
Au      7.421595744705273      6.477190827895103      8.880126361218403
Au      7.315454262617329      3.108441663853937      0.853262851280162
Au      7.293828785987004      6.264524319614801      0.905134773500032
Au      2.534934067793694      3.768752992506126      8.914019232456280
Au      2.505633974575339      6.410090590305892      8.495349426830103
Au      2.448821121340943      3.403561854252225      1.430040338330291
Au      2.415651703474562      6.485289241925847      0.930449561892185
Au      8.645368062366005      7.590936252195362      3.541902418801374
Au      9.037310059298521      7.180494198333410      6.705538635646344
Au      0.657021703274777      7.479743108052411      3.829606937426016
Au      0.739284650807096      7.249112143371804      6.444910046476653
Au      8.778408539066671      2.143991210217560      3.405228407225225
Au      8.666642927144689      2.548842382557822      6.241094926612364
Au      1.247378796836741      2.297473237963539      3.327103509022884
Au      1.100095359307168      2.207951033143995      6.470471760379951
Au      3.652944363120505      8.557607022977665      7.399298460998819
Au      6.476956332308809      9.035468244245374      7.114981547116741
Au      3.127424489647165      1.041780228956613      7.421768623938995
Au      6.475078343528300      1.006681557732629      7.226366744976660
Au      3.437966551696221      8.937718164549647      2.311253612825512
Au      6.798134675688076      8.973870254072269      2.215863196990256
Au      3.522826533990786      0.742455581787769      2.611540817179276
Au      6.656698889260605      0.773255452162891      2.646799122279651
