51

Au      1.958677509264917      6.028189524900074     -3.441585894116956
Au      1.175206505558950      3.616913714940043     -2.064951536470176
Au      0.391735501852981      1.205637904980013     -0.688317178823395
Au      3.705870402236338      4.864391978133214     -1.462674004999711
Au      2.922399398530371      2.453116168173184     -0.086039647352928
Au      1.183036179259926      6.139490510429837     -0.665042608337282
Au     -0.809253237689590      5.594624257148522     -2.753268715293565
Au     -1.592724241395557      3.183348447188492     -1.376634357646784
Au     -2.376195245101526      0.772072637228463     -0.000000000000004
Au      0.482278410185312      3.982779861001240     -4.841494822249849
Au     -0.301192593520656      1.571504051041209     -3.464860464603068
Au     -1.084663597226624     -0.839771758918820     -2.088226106956286
Au     -1.868134600932592     -3.251047568878850     -0.711591749309507
Au      3.272778283067677      3.531471492887483     -4.043863425587422
Au      2.489307279361710      1.120195682927452     -2.667229067940641
Au      1.705836275655742     -1.291080127032578     -1.290594710293862
Au     -3.577183984644096      5.161058989396969     -2.064951536470174
Au     -4.360654988350064      2.749783179436940     -0.688317178823395
Au     -2.285652336769195      3.549214593249688     -4.153177643426459
Au     -3.069123340475163      1.137938783289657     -2.776543285779678
Au     -3.852594344181131     -1.273337026670372     -1.399908928132897
Au     -4.636065347887099     -3.684612836630403     -0.023274570486118
Au     -0.994120688894292      1.937370197102405     -6.241403750382743
Au     -1.777591692600261     -0.473905612857625     -4.864769392735962
Au     -2.561062696306229     -2.885181422817655     -3.488135035089181
Au     -3.344533700012197     -5.296457232777686     -2.111500677442400
Au      1.796379183988073      1.486061828988648     -5.443772353720316
Au      1.012908180282104     -0.925213980971383     -4.067137996073535
Au      0.229437176576137     -3.336489790931412     -2.690503638426755
Au     -0.554033827129832     -5.747765600891442     -1.313869280779974
Au      4.586879056870438      1.034753460874891     -4.646140957057890
Au      3.803408053164470     -1.376522349085139     -3.269506599411109
Au      3.019937049458501     -3.787798159045169     -1.892872241764328
Au      2.236466045752533     -6.199073969005199     -0.516237884117547
Au      5.019971176039097      2.367673946120623     -2.064951536470176
Au      4.236500172333129     -0.043601863839408     -0.688317178823395
Au     -5.053583083723701      3.115649325498135     -3.464860464603069
Au     -5.837054087429669      0.704373515538106     -2.088226106956288
Au     -6.620525091135637     -1.706902294421924     -0.711591749309507
Au     -3.762051435848800      1.503804929350853     -5.553086571559353
Au     -4.545522439554768     -0.907470880609177     -4.176452213912572
Au     -5.328993443260736     -3.318746690569206     -2.799817856265792
Au      0.319980084908468     -0.559347834910187     -6.843681281853209
Au     -0.463490918797500     -2.970623644870217     -5.467046924206429
Au     -1.246961922503468     -5.381899454830246     -4.090412566559648
Au      3.110479957790832     -1.010656203023943     -6.046049885190783
Au      2.327008954084865     -3.421932012983973     -4.669415527544002
Au      1.543537950378897     -5.833207822944003     -3.292781169897221
Au      6.334071949841861     -0.129044085891969     -2.667229067940642
Au      5.550600946135892     -2.540319895851999     -1.290594710293862
Au      6.767164069010522      1.203876399353763     -0.086039647352928
