55

Au     -2.123561455592514     -2.645259116308076     -5.039451203955153
Au     -2.019791919991586     -4.804135038069498     -1.846653164891493
Au     -3.940932546174074     -2.709019115760182     -2.128336347261842
Au     -4.261755898682035     -4.527482853785413      0.236479107711384
Au     -1.971278479186299     -2.561357275764586      0.232006615669032
Au     -2.018752854340688     -4.962257597260205      2.120235794043861
Au     -4.643184169907697     -1.675896784631596      1.300279596511197
Au     -2.872879235018878     -2.424543335411460      3.519372574089175
Au     -3.747741773764253     -0.350209823322154     -4.153049941944171
Au     -2.851286252350146      2.385851465877198     -5.074340600327573
Au     -2.212294051615226     -0.177339496763967     -1.724372699521697
Au     -4.095742138155861      2.081559041785552     -2.343622945964149
Au     -3.876738579080743      0.829613703290734     -0.172153299790673
Au     -1.826015011258701      2.348360070847178      0.504698813640201
Au     -2.326748075996385     -0.053387156259266      2.049201200653203
Au     -4.212981401452107      2.301770570252895      2.314700755479524
Au     -4.508478143416973      0.001233444549892      4.222007696977024
Au     -2.619177158871904      3.270085362125873      3.944643919253365
Au     -2.341856931805226      4.538826662887973     -2.980317375416454
Au     -5.219528287991350      4.554200073791164      1.764839742793719
Au     -1.132194424360230      4.714084287529356      1.842612640399743
Au     -0.815241234909787     -6.480202667016890     -3.898485601595176
Au      1.813908380292343     -1.984627451562605     -4.001759240540919
Au      1.094219792970142     -4.676569315602683     -1.644433848322357
Au     -0.252414443235360     -2.030745182110526     -1.920875346239733
Au     -0.124481481216043     -5.029346388073137      0.490082148192736
Au      2.114690042258545     -1.762548100648373     -0.135513708941517
Au      3.021405078139036     -4.469096099749883      2.199636125469654
Au      0.630604085442791     -2.587354589332008      1.971353016291395
Au     -0.437187328152459     -3.901749442406941      4.491682369604939
Au      2.034806075234663     -2.278960675025087      3.978462262536498
Au      0.171762710715434      0.002915829195782     -5.540025489888512
Au      1.774288742614784      2.468052259517465     -3.972251249207822
Au      2.017048428719375     -0.025565210850872     -1.925497949202836
Au      0.663418139351257      2.276367076580708     -1.167877190087520
Au     -0.096808124186824     -0.135474612162371      0.187996823432279
Au      1.984044174075410      1.933069466727263      0.863443072856395
Au      2.088516500122226     -0.046498577489549      2.269763639820633
Au     -0.189560065677401      1.994480636435541      2.933433774929342
Au     -0.194233440377631     -0.531570690277995      4.069355329262445
Au      2.435158993916260      1.977411064098289      4.345711443752212
Au      0.062994341213387      4.625086750424611     -5.322973779905514
Au      2.442874768978954      5.436807295533565     -3.619904516675191
Au     -0.161995840754924      5.118381993312625     -0.872164115835034
Au      1.639763283752965      3.998182520579782      2.173120536429039
Au      0.184635406396767      3.703361018658830      4.723621688659619
Au      5.739959267967301     -1.511281732716411     -2.650813496496812
Au      4.348074133462663     -2.808221335022887      0.150133818989424
Au      5.741072252630337     -3.296796541069473      2.784294782621545
Au      4.553224996886890      1.183991794234119     -4.744352851823538
Au      4.066561051091458      2.253556008713661     -2.040203703827673
Au      3.727349390351255      0.145247089445129     -0.036107288901405
Au      4.647213709126603      1.510384250350735      2.479369959683678
Au      3.985774752104311     -0.601319550957652      4.560849382314301
Au      3.762077890877773      4.053817980109779      0.161045117530694
