27

Au     -4.997757896792540      0.165163624644447     -0.405316230619727
Au     -4.162577558365243     -2.527157937760352     -1.203848694248563
Au     -0.959063742977996     -4.908084847969651     -0.395606081814887
Au     -4.624995042522930     -0.515662998238884     -3.096127789504144
Au     -3.028421409288804      1.728032725338808     -3.607540566988626
Au     -2.192029321248799     -0.966582632449060     -4.407532287860122
Au     -2.375144350522886     -0.264511660192226     -1.590347522020330
Au     -1.602213352374065     -2.986456121537166     -2.441634438584967
Au      0.203526490252982     -0.672569955193347     -2.782857354328552
Au      1.012758654747727     -3.345451384354415     -3.597657046396177
Au      0.818120632915017     -2.637433142026327     -0.782810641729438
Au      1.592786538027850     -5.135752395877905     -1.524538694275557
Au      3.436643857232621     -3.076816194167707     -1.973430811089158
Au     -3.286243958843432      2.441936814156924     -0.830529894161164
Au     -1.464963488932720      4.638156165580415     -1.228247025605487
Au     -0.614589020027861      1.964845461547747     -1.999978912129038
Au      1.760370058127821      2.230049072391619     -0.410312840833613
Au      2.578716215801605     -0.408265113338810     -1.193364556759677
Au     -0.396247030497401      1.309830549284942     -4.826059943327484
Au      0.396247072928295     -1.309830552524504     -5.419070596582768
Au      2.808322132229396     -1.069096445589820     -4.017270047822095
Au     -1.196533862567559      3.825904850526483     -3.894440216161869
Au      1.167188180070232      4.221023034682770     -2.447193072581729
Au      2.021153115862558      1.602253957750569     -3.285916242772259
Au      4.370230372414844      1.840980476838217     -1.636254933736228
Au      5.021232308799438     -0.794251458805700     -2.323300276680431
Au      3.428392438177856      4.341956149023982     -0.798665808274414
