29

Au      0.852565894072372     -2.317466181936890     -0.341469129955249
Au      5.520770318989723     -1.036942842469671     -0.526096563192511
Au      4.506305717182047      1.295702898092955     -1.756457931047595
Au      1.689676789854202     -1.686438544526228     -4.562854771020545
Au     -1.472184858188637     -0.749097620006322     -1.018122675956238
Au      2.030646518229383     -3.709258988262944     -2.636688598897134
Au     -1.919862868410243      1.648411407684919     -4.872755520833300
Au     -5.255890350485187      1.171640009795517     -1.532522148219899
Au      3.784272879592723     -3.249346210750120     -0.372999968831371
Au     -2.592734883325083     -2.678107297136340     -2.632394397224827
Au      0.557179955521417      4.021277690446485     -1.053209035981731
Au      3.936877189622590     -1.723303909661636     -2.730723483373496
Au      1.725430702514563     -5.112160381461141     -0.290431691591992
Au     -4.278782317144489     -1.233360568734908     -0.714997847581444
Au     -3.743430379793298      2.762177884565130     -3.156418026717979
Au     -1.094475551951760     -0.952075763591931     -4.473104533473089
Au     -3.456069507123106     -0.096212401718684     -3.217299613265663
Au     -0.337502889664618     -3.519328694194474     -4.006340013070594
Au      2.246409688712754      2.639087002832678     -2.808408873600226
Au      2.941661197892972      2.922496066741549     -0.121988517368364
Au      0.785416497302374      1.148831559655763     -4.863212177985853
Au      0.932799091870829     -0.187191012499054     -2.371305892494944
Au     -0.714138188858285     -4.411721873496260     -1.440793996211620
Au     -4.075075122091302      3.450470924833043     -0.450051635474945
Au      2.806286378479351     -0.370407516426571     -0.351818392718128
Au      3.361527611084545      0.523546783825817     -4.157088824586976
Au     -1.205479233353858      1.770657499994224     -2.125760452512511
Au     -0.108117386391703      3.641919171442822     -3.837843599593926
Au     -1.990145508402970      4.543582455156368     -1.973622290831834
