55

Au     -4.497757861104606      0.665163677632084      0.094683669649352
Au     -3.662577522677309     -2.027157884772715     -0.703848793979484
Au     -3.870230416592627     -1.340980423735574      2.136254688323101
Au     -2.928392507605762     -3.841956316933379      1.298665757376348
Au     -1.260370188644712     -1.730049043750591      0.910312784637790
Au     -0.459063707290062     -4.408084794982014      0.104393818454193
Au     -0.667188323813033     -3.721022932434286      2.947193003462372
Au      1.964963769561459     -4.138156013514778      1.728246812114916
Au     -4.521232344487371      1.294251625361651      2.823300140117060
Au     -2.936643853998117      3.576816235672827      2.473430706138029
Au     -2.078716252369348      0.908264956110871      1.693364457548922
Au     -2.308321991385981      1.569096245992598      4.517269846385487
Au     -1.521152917646957     -1.102254014660518      3.785916113146337
Au      0.296473441147839      1.172570158298949      3.282857324671555
Au      1.114589017999361     -1.464845466224922      2.499978672094615
Au      0.896247108616228     -0.809830499536868      5.326059868115080
Au      1.696533750823184     -3.325904789414794      4.394440080560449
Au      3.528421246062306     -1.228032592246586      4.107540383969974
Au     -0.512758265416049      3.845451530801594      4.097657110596267
Au      0.103752921674040      1.809830607547915      5.919070696313688
Au      2.692029234962841      1.466582612553116      4.907532296222700
Au     -4.124995006834997     -0.015662945251247     -2.596127889235064
Au     -2.528421373600870      2.228032778326445     -3.107540666719546
Au     -1.692029285560866     -0.466582579461423     -3.907532387591043
Au     -1.875144314834953      0.235488392795410     -1.090347621751250
Au     -1.102213316686131     -2.486456068549529     -1.941634538315887
Au      0.703526525940915     -0.172569902205710     -2.282857454059472
Au      1.512758690435660     -2.845451331366778     -3.097657146127097
Au      1.318120668602951     -2.137433089038691     -0.282810741460358
Au      2.092786573715783     -4.635752342890268     -1.024538794006477
Au      3.936643892920554     -2.576816141180070     -1.473430910820078
Au     -2.786243923155499      2.941936867144561     -0.330529993892084
Au     -0.964963453244787      5.138156218568051     -0.728247125336407
Au     -0.114588984339928      2.464845514535384     -1.499979011859958
Au     -0.318120471727231      3.137433142614688      1.282810606352577
Au      0.500000076170884      0.499999977619120      0.499999901131526
Au      2.260370093815755      2.730049125379256      0.089687059435467
Au      3.078716251489539      0.091734939648826     -0.693364656490598
Au      2.875144135791979      0.764511733650712      2.090347387572384
Au      3.786244264768709     -1.941936756792142      1.330530036513021
Au      5.497758009217415      0.334836563020825      0.905316042899808
Au     -1.092786549118713      5.635752342890268      2.024538509013142
Au      1.459063881073605      5.408085148210714      0.895605992744370
Au      2.102213656717434      3.486456369504679      2.941634383057829
Au      4.662577649300157      3.027157953929580      1.703848600375800
Au      5.124994885554610      1.015663087377122      3.596127532967588
Au      0.103753005190532      1.809830602272578     -4.326060043058404
Au      0.896247108616228     -0.809830499536868     -4.919070696313688
Au      3.308322167917330     -0.569096392602183     -3.517270147553015
Au     -0.696533826879625      4.325904903514120     -3.394440315892789
Au      1.667188215758165      4.721023087670407     -1.947193172312649
Au      2.521153151550492      2.102254010738205     -2.785916342503179
Au      4.870230408102778      2.340980529825853     -1.136255033467148
Au      5.521232344487371     -0.294251405818063     -1.823300376411351
Au      3.928392473865789      4.841956202011619     -0.298665908005334
