24

Au      1.348700862731530      3.970879755603679     -0.090225659508900
Au      0.428118050030962      1.372745599268561     -0.016683586143330
Au     -3.021374444168083     -1.812378450379616     -0.237356976615853
Au      0.061810043489109      2.897549196670692     -2.269890375641692
Au     -0.783859803251167      0.171844806462669     -2.343085737318362
Au     -1.813767677338407     -2.752935107242899     -2.387631115814625
Au      2.900790985234589      1.989556646547805     -1.861190566462386
Au      1.898866719896144     -0.641599011733469     -1.466688461382335
Au      1.224865349003061     -3.269649562448279     -1.151731263256860
Au     -5.375644404591239     -0.028052254328696     -0.020021365303363
Au     -2.678869938023742      2.166253796052285     -2.434327721475503
Au     -3.592500110053232     -0.307107403597096     -2.088607758380380
Au     -1.085798129352196      2.011761865944235     -4.852430648607767
Au     -1.956508599662889     -1.040456093085870     -4.601976469501031
Au      1.608374453629185      0.970743951175598     -4.159911788649888
Au      0.678346439016999     -1.811113076393965     -3.967522564104372
Au      4.189369885572554      0.083953018077922     -2.612121930753766
Au      3.535293679013065     -2.305797721181533     -2.926224710468546
Au      4.130652614273488     -0.302251956137444     -0.037645981683829
Au     -5.562428274185566      1.644114383513813     -2.613494334256213
Au     -4.115037641397992      1.338747635613723     -4.660282984159907
Au      0.681489874008942     -0.333337955551920     -6.258656703243045
Au      3.221690033248449     -1.221093976101581     -5.508550841484205
Au      6.073383960082505     -1.993880011842222     -1.738977192799738
