49

Au      7.417993048981133     10.032175358544317      4.327493500861671
Au      6.526480359105538      7.288381429731372      4.327493500861671
Au      5.634967669229942      4.544587500918426      4.327493500861671
Au      4.743454979354347      1.800793572105480      4.327493500861671
Au      8.894619039283409      8.035658509728133      5.796062926240298
Au      8.003106349407815      5.291864580915188      5.796062926240298
Au      7.111593659532219      2.548070652102243      5.796062926240298
Au      6.237951991354021      8.898861959933324      6.703688745963193
Au      5.346439301478425      6.155068031120378      6.703688745963193
Au      4.454926611602830      3.411274102307432      6.703688745963193
Au      4.596041458941812      9.432351031366307      4.327493500861671
Au      3.704528769066217      6.688557102553363      4.327493500861671
Au      2.813016079190622      3.944763173740417      4.327493500861671
Au      6.237951991354022      8.898861959933324      1.951298255760149
Au      5.346439301478426      6.155068031120378      1.951298255760149
Au      4.454926611602831      3.411274102307432      1.951298255760149
Au      8.894619039283409      8.035658509728133      2.858924075483042
Au      8.003106349407815      5.291864580915188      2.858924075483042
Au      7.111593659532219      2.548070652102243      2.858924075483042
Au     10.371245029585687      6.039141660911950      7.264632351618927
Au      9.479732339710091      3.295347732099005      7.264632351618927
Au      7.714577981656298      6.902345111117140      8.172258171341820
Au      6.823065291780702      4.158551182304194      8.172258171341820
Au      5.057910933726909      7.765548561322330      9.079883991064717
Au      4.166398243851313      5.021754632509384      9.079883991064717
Au      3.416000401314701      8.299037632755315      6.703688745963193
Au      2.524487711439105      5.555243703942368      6.703688745963193
Au      1.774089868902493      8.832526704188298      4.327493500861671
Au      0.882577179026897      6.088732775375353      4.327493500861671
Au      3.416000401314701      8.299037632755313      1.951298255760149
Au      2.524487711439106      5.555243703942368      1.951298255760149
Au      5.057910933726910      7.765548561322330     -0.424896989341375
Au      4.166398243851314      5.021754632509383     -0.424896989341375
Au      7.714577981656298      6.902345111117140      0.482728830381519
Au      6.823065291780702      4.158551182304194      0.482728830381519
Au     10.371245029585689      6.039141660911950      1.390354650104415
Au      9.479732339710093      3.295347732099004      1.390354650104415
Au     10.371245029585687      6.039141660911950      4.327493500861670
Au      9.479732339710091      3.295347732099005      4.327493500861670
Au      9.191203971958576      4.905828262300957      9.640827596720449
Au      6.534536924029188      5.769031712506146     10.548453416443344
Au      2.235959343687589      7.165724234144321      9.079883991064715
Au      0.594048811275381      7.699213305577305      6.703688745963193
Au      0.594048811275381      7.699213305577304      1.951298255760148
Au      2.235959343687589      7.165724234144321     -0.424896989341375
Au      6.534536924029188      5.769031712506146     -1.893466414720003
Au      9.191203971958576      4.905828262300957     -0.985840594997108
Au     11.847871019887966      4.042624812095767      2.858924075483042
Au     11.847871019887966      4.042624812095767      5.796062926240298
