55

Au     -2.038773285846989     -2.039408264301172     -4.077891311461899
Au     -2.037746970143592     -4.078773153374724     -2.039504136956949
Au     -4.076959787184493     -2.038502565270847     -2.039739474385935
Au     -4.077996439956414     -4.079002417692813     -0.000465729753570
Au     -2.039028037728434     -2.041183280244658     -0.001724917832513
Au     -2.039832287529241     -4.079551831120335      2.039584247332595
Au     -4.079447024075521     -2.040682303701336      2.040735648768922
Au     -2.039495776300487     -2.039202471795312      4.077114251813787
Au     -4.079083382724526      0.000110922589710     -4.079689993577422
Au     -2.038894301981654      2.038669361310081     -4.078830693749794
Au     -2.039871706612229      0.001852278184509     -2.039283497224738
Au     -4.079596710928956      2.040092544912103     -2.040490843649971
Au     -4.078330136404995     -0.001959670123880     -0.001328186048898
Au     -2.039073138764131      2.040008466579995      0.000171368281190
Au     -2.039385648282388     -0.000301103695589      2.037791478009633
Au     -4.079258844208395      2.038809361229041      2.040327122226219
Au     -4.078195381710431     -0.001763040155363      4.078863083969395
Au     -2.039655082280416      2.038593077999694      4.079150676288841
Au     -2.038239000477504      4.079470280119116     -2.040109217523223
Au     -4.078848212375851      4.078870263431404      0.000975545127122
Au     -2.039749174237846      4.078353341023337      2.038163665025994
Au     -0.001196206624081     -4.077726474177606     -4.077182759971429
Au      2.039197989878420     -2.038266467102108     -4.078177363974953
Au      2.038624880245395     -4.078177604394492     -2.037731963433534
Au     -0.000035826039110     -2.037705356344186     -2.041889745104090
Au      0.000821902504375     -4.078451952931762     -0.000299007350466
Au      2.039361760776536     -2.041257568914601     -0.000219671887838
Au      2.039627112571512     -4.077061105955258      2.038751729781727
Au     -0.000808493602893     -2.039771757043585      2.040185402117702
Au      0.000328751109660     -4.079068760203767      4.079052267433114
Au      2.039367077549348     -2.038301355009467      4.077836946906123
Au     -0.000327662146598     -0.000392108153132     -4.080002514948132
Au      2.039566120277065      2.039531055272180     -4.078533886543358
Au      2.039035412866625     -0.001415370742050     -2.039690645322766
Au     -0.000342714516527      2.038467722730779     -2.039431285711666
Au      0.000404050856815      0.001886185901211      0.000174577812832
Au      2.039527550390723      2.039195554084234     -0.001918771215299
Au      2.039243486124551      0.000060230209941      2.041733242112485
Au     -0.000192360964781      2.039571547342334      2.039235288230295
Au     -0.001168678037620      0.001142822814515      4.079290933032687
Au      2.040061031947043      2.038360612545206      4.079941794310936
Au     -0.001401851062792      4.079125857093801     -4.076348544374190
Au      2.038279463674869      4.077972702270397     -2.039170348634912
Au     -0.000503475654116      4.076988336568934      0.000068562974806
Au      2.038207696286274      4.079012592430636      2.038350575765767
Au      0.001549934405018      4.077755746707663      4.078216938483794
Au      4.079352517217369     -2.040500864316434     -2.039042540065396
Au      4.079846142754283     -4.080146483234562      0.000184633858532
Au      4.078798882794248     -2.038488177128223      2.038033049289122
Au      4.077218543386916      0.000521941565617     -4.078242015326767
Au      4.078789492850346      2.039616448209497     -2.039950024721579
Au      4.078771253697161      0.000293072473299     -0.000714351418026
Au      4.080404774511145      2.039743832920912      2.038078696502797
Au      4.079195553608634     -0.000974681670227      4.079326084603743
Au      4.079697595579008      4.077718317681648      0.000963376129244
