55

Au     -2.039270000000000     -2.039270000000000     -4.078539000000000
Au     -2.039270000000000     -4.078539000000000     -2.039270000000000
Au     -4.078539000000000     -2.039270000000000     -2.039270000000000
Au     -4.078539000000000     -4.078539000000000      0.000000000000000
Au     -2.039270000000000     -2.039270000000000      0.000000000000000
Au     -2.039270000000000     -4.078539000000000      2.039270000000000
Au     -4.078539000000000     -2.039270000000000      2.039270000000000
Au     -2.039270000000000     -2.039270000000000      4.078539000000000
Au     -4.078539000000000      0.000000000000000     -4.078539000000000
Au     -2.039270000000000      2.039270000000000     -4.078539000000000
Au     -2.039270000000000      0.000000000000000     -2.039270000000000
Au     -4.078539000000000      2.039270000000000     -2.039270000000000
Au     -4.078539000000000      0.000000000000000      0.000000000000000
Au     -2.039270000000000      2.039270000000000      0.000000000000000
Au     -2.039270000000000      0.000000000000000      2.039270000000000
Au     -4.078539000000000      2.039270000000000      2.039270000000000
Au     -4.078539000000000      0.000000000000000      4.078539000000000
Au     -2.039270000000000      2.039270000000000      4.078539000000000
Au     -2.039270000000000      4.078539000000000     -2.039270000000000
Au     -4.078539000000000      4.078539000000000      0.000000000000000
Au     -2.039270000000000      4.078539000000000      2.039270000000000
Au      0.000000000000000     -4.078539000000000     -4.078539000000000
Au      2.039270000000000     -2.039270000000000     -4.078539000000000
Au      2.039270000000000     -4.078539000000000     -2.039270000000000
Au      0.000000000000000     -2.039270000000000     -2.039270000000000
Au      0.000000000000000     -4.078539000000000      0.000000000000000
Au      2.039270000000000     -2.039270000000000      0.000000000000000
Au      2.039270000000000     -4.078539000000000      2.039270000000000
Au      0.000000000000000     -2.039270000000000      2.039270000000000
Au      0.000000000000000     -4.078539000000000      4.078539000000000
Au      2.039270000000000     -2.039270000000000      4.078539000000000
Au      0.000000000000000      0.000000000000000     -4.078539000000000
Au      2.039270000000000      2.039270000000000     -4.078539000000000
Au      2.039270000000000      0.000000000000000     -2.039270000000000
Au      0.000000000000000      2.039270000000000     -2.039270000000000
Au      0.000000000000000      0.000000000000000      0.000000000000000
Au      2.039270000000000      2.039270000000000      0.000000000000000
Au      2.039270000000000      0.000000000000000      2.039270000000000
Au      0.000000000000000      2.039270000000000      2.039270000000000
Au      0.000000000000000      0.000000000000000      4.078539000000000
Au      2.039270000000000      2.039270000000000      4.078539000000000
Au      0.000000000000000      4.078539000000000     -4.078539000000000
Au      2.039270000000000      4.078539000000000     -2.039270000000000
Au      0.000000000000000      4.078539000000000      0.000000000000000
Au      2.039270000000000      4.078539000000000      2.039270000000000
Au      0.000000000000000      4.078539000000000      4.078539000000000
Au      4.078539000000000     -2.039270000000000     -2.039270000000000
Au      4.078539000000000     -4.078539000000000      0.000000000000000
Au      4.078539000000000     -2.039270000000000      2.039270000000000
Au      4.078539000000000      0.000000000000000     -4.078539000000000
Au      4.078539000000000      2.039270000000000     -2.039270000000000
Au      4.078539000000000      0.000000000000000      0.000000000000000
Au      4.078539000000000      2.039270000000000      2.039270000000000
Au      4.078539000000000      0.000000000000000      4.078539000000000
Au      4.078539000000000      4.078539000000000      0.000000000000000
