55

Au     -2.035903412000000     -2.035795814000000     -4.108500574000000
Au     -2.036343172000000     -4.107166566000000     -2.036497026000000
Au     -4.107724352000000     -2.036049236000000     -2.036309704000000
Au     -3.952443376000000     -3.952533246000000     -0.000021134000000
Au     -2.029856824000000     -2.029793116000000      0.000380196000000
Au     -2.035395976000000     -4.108260414000000      2.035918442000000
Au     -4.108786682000000     -2.035115938000000      2.035753648000000
Au     -2.036401110000000     -2.036285502000000      4.107774676000000
Au     -3.952371422000000     -0.000020944000000     -3.952226502000000
Au     -2.034967304000000      2.035227770000000     -4.109562530000000
Au     -2.029809778000000      0.000371480000000     -2.029888918000000
Au     -4.108792498000000      2.035478158000000     -2.035374652000000
Au     -4.177262586000000     -0.000045090000000     -0.000041116000000
Au     -2.029572682000000      2.029508264000000      0.000006338000000
Au     -2.029522764000000     -0.000001286000000      2.029603402000000
Au     -4.106998136000000      2.036539128000000      2.036810576000000
Au     -3.952028444000000      0.000001034000000      3.951882626000000
Au     -2.035347592000000      2.034863134000000      4.109558662000000
Au     -2.036830958000000      4.106441726000000     -2.036987572000000
Au     -3.952106228000000      3.952195910000000     -0.000000850000000
Au     -2.035762366000000      4.108262138000000      2.035551392000000
Au     -0.000021140000000     -3.952489492000000     -3.952255252000000
Au      2.035347592000000     -2.034863202000000     -4.109558882000000
Au      2.035762194000000     -4.108262174000000     -2.035551424000000
Au      0.000377948000000     -2.029766588000000     -2.029908816000000
Au     -0.000044332000000     -4.177030826000000     -0.000044410000000
Au      2.029572634000000     -2.029508156000000     -0.000006494000000
Au      2.036831036000000     -4.106441428000000      2.036987828000000
Au     -0.000007854000000     -2.029480380000000      2.029624802000000
Au      0.000001718000000     -3.952151108000000      3.951916178000000
Au      2.034967288000000     -2.035227794000000      4.109562510000000
Au     -0.000041912000000     -0.000045886000000     -4.177587182000000
Au      2.036401356000000      2.036285600000000     -4.107774564000000
Au      2.029522834000000      0.000001148000000     -2.029603426000000
Au      0.000007844000000      2.029480428000000     -2.029624660000000
Au     -0.000000010000000     -0.000000038000000      0.000000076000000
Au      2.029856700000000      2.029793060000000     -0.000380304000000
Au      2.029809662000000     -0.000371658000000      2.029888984000000
Au     -0.000378034000000      2.029766486000000      2.029908600000000
Au      0.000041854000000      0.000046134000000      4.177587440000000
Au      2.035903570000000      2.035795888000000      4.108500538000000
Au     -0.000001714000000      3.952150964000000     -3.951916170000000
Au      2.035396112000000      4.108260636000000     -2.035918504000000
Au      0.000044502000000      4.177031094000000      0.000044516000000
Au      2.036343180000000      4.107166564000000      2.036497092000000
Au      0.000021184000000      3.952489352000000      3.952255048000000
Au      4.106998136000000     -2.036539100000000     -2.036810536000000
Au      3.952106052000000     -3.952195808000000      0.000000856000000
Au      4.108792532000000     -2.035478358000000      2.035374862000000
Au      3.952028404000000     -0.000001106000000     -3.951882754000000
Au      4.108786590000000      2.035115922000000     -2.035753812000000
Au      4.177262646000000      0.000045056000000      0.000041302000000
Au      4.107724428000000      2.036049120000000      2.036309612000000
Au      3.952371460000000      0.000020976000000      3.952226372000000
Au      3.952443202000000      3.952533076000000      0.000021190000000
