55

Au     -2.043636478636358     -2.058213264376049     -4.124176942399417
Au     -2.038747020410761     -4.125000496973501     -2.042616160289499
Au     -4.097162423063010     -2.054706992081079     -2.038907677961467
Au     -3.935072575385419     -3.977335976705001      0.000698469047751
Au     -2.017896828331585     -2.037209125517661     -0.013278061627792
Au     -2.038958294961071     -4.107524005396385      2.033477963333554
Au     -4.109338335498319     -2.034253178538641      2.028805421101087
Au     -2.017447839908824     -2.059399935406343      4.097087830289186
Au     -3.952752958690359     -0.029585677747926     -3.949434467461577
Au     -2.045127900541865      2.007946413142601     -4.130273608757019
Au     -2.022558636615257     -0.004134114561936     -2.035678192405057
Au     -4.095694431734320      2.027719964606644     -2.045259145716646
Au     -4.174889202890582     -0.010443159955126     -0.009034683389643
Au     -2.022608607525405      2.019292877279828     -0.013248706294634
Au     -2.028602083527322     -0.020582618963387      2.023896818581617
Au     -4.110361520694136      2.025138684072205      2.026307162923011
Au     -3.958121519843629     -0.022503977381289      3.929972101003469
Au     -2.045117649364942      2.021408692792948      4.088186242328283
Au     -2.045952215768133      4.091618454909265     -2.069399407205318
Au     -3.941323471068391      3.962710156387865     -0.018369703728828
Au     -2.042800002431492      4.094800228946728      2.017996156300094
Au     -0.012909760797226     -3.961756061343439     -3.972922534686992
Au      2.050630316265657     -2.050105114575975     -4.116215475089942
Au      2.032920081270706     -4.121433688804736     -2.050099517414898
Au      0.005760907585951     -2.045387860282470     -2.051814665662159
Au     -0.000238666207298     -4.180708720351798     -0.010155731334832
Au      2.025483602071523     -2.041091302126007     -0.018632219477895
Au      2.037531910923858     -4.115049265722876      2.028022712469751
Au     -0.013607536516566     -2.040027832838461      2.027124879094443
Au      0.005781346067833     -3.962235077784851      3.939846982805243
Au      2.015455983608003     -2.045632624864528      4.103965870420358
Au     -0.003430279798982     -0.020224318338080     -4.188518639294443
Au      2.025691419617055      2.019754761637371     -4.139587397363099
Au      2.033294264372921     -0.001302527454621     -2.051040001606593
Au     -0.009161763861861      2.014614358104671     -2.061717435927189
Au      0.008422305902174     -0.014007559829599     -0.008774788670565
Au      2.028759197209488      2.025084434836230     -0.011995391468805
Au      2.019750349270986     -0.006619308397855      2.009247364859520
Au     -0.001952855940949      2.024548092706890      2.021965794634117
Au     -0.004473564451833     -0.002935881978805      4.157683302138212
Au      2.020372942758636      2.032150728668824      4.082830696582766
Au     -0.026848569976033      3.925994191547987     -3.982990500330823
Au      2.018881021750358      4.084892370710610     -2.067806922610143
Au      0.007955271611036      4.173250001105022     -0.010247285998646
Au      2.033783629556609      4.102795379177886      2.007617501465177
Au     -0.015839783573874      3.965040791628371      3.920692407202588
Au      4.118272933233504     -2.047972609294687     -2.042823815850033
Au      3.944028807653330     -3.979204481194564     -0.034942613726455
Au      4.117889755073610     -2.043513546084458      2.024241930234195
Au      3.960229527940503     -0.005583123221857     -3.955552755168504
Au      4.110673027477358      2.022144618839805     -2.044194017012360
Au      4.184576530249561     -0.018749385238684     -0.012730114727105
Au      4.103253536411256      2.024071995754860      2.027078068087234
Au      3.937533654254320      0.009635766406516      3.944649013114638
Au      3.960661263334937      3.941293963956683     -0.039620578002976
