60

C       2.248382704863797      0.583941234616846      2.709967886205149
C       3.220256119804970      0.147996110394643      1.608003276056608
C       1.442193109901025     -0.257125134230143      3.201456318598619
C       3.134701763094603     -1.187199656189685      1.160849187496512
C       3.212908321281188     -1.590534897370704     -0.333260166108425
C       3.188072585423891      1.161502990456256      0.689029560614264
C       3.259249290637994      0.843673437205194     -0.582915937406570
C       3.291291882665456     -0.420219497467157     -1.235176121221156
C      -0.489625173441288      1.376199503869401      3.125322456003017
C       0.492143559302543      2.265486653015765      2.594326743764677
C      -0.069257169468287      0.214307751100135      3.510575697043607
C       1.697864524044131      1.986493688759326      2.261875100852057
C       2.415122315245338      2.184302421204536      1.019941790528212
C      -0.250236852253292      3.150631127179674      1.669703147964488
C       0.332242971950435      3.457992637613160      0.363372938683913
C       1.646372061203976      3.052266647261855      0.266459678061543
C      -2.106345101440640     -0.965910851030754      2.689280961827031
C      -2.599152841909559      0.445081537978277      2.393891016507702
C      -0.808564033902788     -0.975983111542750      3.176518555851193
C      -1.768931078685436      1.600629703629653      2.684850704025688
C      -1.665546370887016      2.632951212656869      1.579405216845572
C      -3.396969670309728      0.494610333389988      1.213114042028529
C      -3.205574718632203      1.537923835750334      0.219353157778382
C      -2.390807502576963      2.617547087991098      0.578473596219084
C      -0.506889648776806     -2.869343300437206      1.601878097609628
C      -1.741919922189359     -2.765507658155090      1.175090478116924
C      -0.047247984865979     -2.272880392936663      2.773342295963537
C      -2.572821007422666     -1.616513522823352      1.590636814502571
C      -3.385612045805417     -0.967516750094502      0.734797550356847
C      -1.678345671214162     -3.110501974467459     -0.171898012248952
C      -2.398116493996289     -2.243195205672165     -1.180946769665292
C      -3.256220012408442     -1.249513678872383     -0.787593561317380
C       2.201083539671585     -2.075014075675228      1.786810055421615
C       1.696050313530365     -3.075123322685580      0.718150182083660
C       1.288970269326600     -1.737078686114735      2.776486714471713
C       0.424099610833832     -3.276005801014052      0.761301024711061
C      -0.326261922258684     -3.472573660019398     -0.621297756286232
C       2.338481514843106     -2.575543655094187     -0.311481810013545
C       1.613699371500540     -2.613330138694313     -1.677703535649072
C       0.177063859329013     -3.005884580169434     -1.621188754679239
C      -2.161558731759944     -0.647318509290427     -2.581270603923537
C      -1.876946425458252     -1.875314146340181     -2.209711650567491
C      -0.540135079084279     -2.337508138801797     -2.625065753078777
C      -1.370599771442250      0.212706896394305     -3.246589028788772
C      -2.260155563674553      2.138899062575098     -1.868434120630600
C      -2.990871657243754      1.110086016244127     -1.233632367650603
C      -3.059215277566754     -0.240584366466811     -1.625408344643107
C      -1.225122864445948      1.577316690346153     -2.791227996044206
C       0.518200678391638      3.047908423896189     -1.892335500472344
C      -0.493485419528984      3.459096851158800     -0.744343088200444
C      -1.699549007625443      3.011112822874285     -0.813212755232073
C       0.065704012498431      2.163848145604206     -2.855632950679873
C       2.258779990291278      0.886067137384737     -2.767692548301389
C       2.640404306213002      1.664289601413860     -1.588432993134286
C       1.878046286109526      2.725602555397029     -1.144788294823653
C       0.906571445812491      1.111742271359609     -3.117771698231570
C       0.429104443763796     -1.410789267669382     -3.287356524503412
C       1.684886469767454     -1.571417221368401     -2.608792209788019
C       2.586898046752431     -0.422932989318442     -2.366730865676669
C       0.125115919478170     -0.090568635159895     -3.335009989172137
