52

Au     -5.217846405228762     -5.106120915032687     -0.970947712418301
Au     -5.624846405228762     -2.257120915032686     -0.970947712418303
Au     -6.031846405228762      0.591879084967314     -0.970947712418302
Au     -6.438846405228762      3.440879084967314     -0.970947712418301
Au     -3.996846405228762     -3.478120915032686     -3.005947712418302
Au     -2.368846405228762     -4.699120915032685     -5.040947712418301
Au     -2.775846405228762     -1.850120915032686     -5.040947712418301
Au     -2.640179738562095     -6.191454248366020     -0.292614379084968
Au     -1.419179738562093     -4.563454248366019     -2.327614379084968
Au     -4.810846405228762      2.219879084967314     -3.005947712418303
Au     -3.182846405228761      0.998879084967314     -5.040947712418301
Au     -3.589846405228762      3.847879084967314     -5.040947712418302
Au     -4.403846405228762     -0.629120915032686     -3.005947712418302
Au     -3.454179738562095     -0.493454248366019     -0.292614379084968
Au     -1.826179738562097     -1.714454248366019     -2.327614379084968
Au     -2.233179738562095      1.134545751633979     -2.327614379084968
Au     -3.047179738562095     -3.342454248366018     -0.292614379084968
Au     -4.268179738562093      5.204545751633981     -0.292614379084968
Au     -2.640179738562094      3.983545751633981     -2.327614379084968
Au     -3.861179738562093      2.355545751633981     -0.292614379084968
Au     -1.554846405228762     -0.222120915032686     -7.075947712418301
Au     -0.198179738562095     -2.935454248366019     -4.362614379084969
Au      1.022820261437906     -1.307454248366019     -6.397614379084968
Au      0.208820261437906     -5.784454248366018     -4.362614379084967
Au      1.158486928104572     -5.648787581699352     -1.649281045751634
Au      2.379486928104572     -4.020787581699353     -3.684281045751634
Au     -1.012179738562095      2.762545751633981     -4.362614379084969
Au      0.615820261437906      1.541545751633981     -6.397614379084969
Au     -0.605179738562095     -0.086454248366019     -4.362614379084969
Au      0.344486928104572      0.049212418300648     -1.649281045751636
Au      1.972486928104572     -1.171787581699353     -3.684281045751635
Au      1.565486928104572      1.677212418300648     -3.684281045751635
Au      0.751486928104572     -2.799787581699352     -1.649281045751634
Au      3.329153594771237     -3.885120915032685     -0.970947712418300
Au      2.922153594771237     -1.036120915032686     -0.970947712418300
Au     -1.419179738562095      5.611545751633981     -4.362614379084968
Au     -0.469513071895427      5.747212418300649     -1.649281045751634
Au      1.158486928104572      4.526212418300648     -3.684281045751634
Au     -0.062513071895427      2.898212418300648     -1.649281045751634
Au      2.515153594771237      1.812879084967314     -0.970947712418301
Au      2.108153594771237      4.661879084967314     -0.970947712418301
Au      3.600486928104572     -2.392787581699352     -5.719281045751634
Au      2.786486928104572      3.305212418300648     -5.719281045751634
Au      3.193486928104572      0.456212418300648     -5.719281045751634
Au      4.143153594771237      0.591879084967314     -3.005947712418301
Au      4.550153594771237     -2.257120915032686     -3.005947712418299
Au      5.499820261437907     -2.121454248366019     -0.292614379084966
Au      6.720820261437903     -0.493454248366019     -2.327614379084967
Au      3.736153594771237      3.440879084967314     -3.005947712418300
Au      4.685820261437907      3.576545751633981     -0.292614379084968
Au      6.313820261437903      2.355545751633981     -2.327614379084967
Au      5.092820261437903      0.727545751633981     -0.292614379084966
