249

Au      0.642591524067376      4.562347954554010      4.746659714419049
Au      0.664141483349989      4.730539781352006      9.179595468795020
Au     -0.093689226321575      2.584709562388786     11.136118041385743
Au      1.422051595410477      6.781255074165239      2.857480544999153
Au     -0.497781085710238      7.483636102056064      5.013122878788145
Au      0.137555313271016     12.379180996833071     10.442189007118081
Au      1.488273565183858      6.684308442982443      6.916307754887126
Au      2.341288215790734      8.681949300713999      4.933944198103308
Au     -0.244542004438395      7.452591054009702      8.706630296569243
Au      0.553145477327942      9.338001419974262     11.051042020098185
Au      1.606295881511795      6.657878176142685     11.033740557746398
Au      2.292991663147935      8.518752598577791      9.002629475085417
Au     -0.838228855710573      5.416340013569416      6.800701437622554
Au      1.622051056253478      6.469097395708210     15.044462843547718
Au      2.491634119144622      8.436855967094299     13.046089919221709
Au      3.142061771014263     10.537285104900949      2.844631570542706
Au      4.927694110876701      9.966983118682109      1.009851374421961
Au      0.774171752450542     13.284120655508449      7.508836081307128
Au      3.135496207480004     10.422539888308712      6.950674199393215
Au      3.861149031607822     12.333921048414370      4.956445347136696
Au      1.663844525239136     11.034781214446172      9.025627501681324
Au      2.430714076228572     13.091085120984358     11.226289776717591
Au      3.199183146176367     10.319044636870384     11.044193705764327
Au      3.928278306213230     12.255982896740404      9.012991574735565
Au      5.462981937956628      9.535682889068159     16.913080537787078
Au      2.444440108988645      8.295979973740344     17.130271137000683
Au      4.215374119881343     12.223446678173527     12.901324539918882
Au      5.516582732386800     16.114194829477171      4.929034491278998
Au      6.574849800691770     17.812274980498401      6.853957103208017
Au      4.732057635763569     14.185590592772346      6.986148477854603
Au      8.371878400431370     16.985068006878716      4.850004932244222
Au      2.688051113475451     15.201808910603157      5.187535098077614
Au      4.811655297996170     14.082627108504363     11.067342312155592
Au      2.878309732771243     14.996523141388314      8.715019996017114
Au      2.173826900870241     12.864388497194181     15.588508014121164
Au      4.757010676907770     14.038738259390545     15.476007270281631
Au      2.921373585321732     14.879756755163973     13.472210241474485
Au      3.128287292616429      6.544273860873862      0.568997212837175
Au      2.151954030133335      2.107263367875384      4.463387456917873
Au      2.573512862633645      4.023772522635338      6.851162926082196
Au      2.733892001499254     -0.150140604262784      8.558193251541944
Au      4.384838384403698      3.272041628926945      4.783466143694079
Au      1.100966049680636      0.170508374929223      6.567388001345085
Au      1.883236487601968      2.353587654327297      8.801624635770626
Au      3.709003748626729      1.274714108718552     10.879936154703710
Au      4.504314694082180      3.141013304499589      8.891434737365385
Au      1.830924311871116      1.871549177024854     13.107641499446224
Au      0.774190279519222      4.655171653025955     13.030271219520621
Au      4.592193321060406      3.049874005106641     12.937150932746791
Au      1.853430763057599      8.689955968777683      1.102465797181316
Au      4.034452662069154      7.882169906887428      2.817704411527279
Au      4.401094552079654      3.717266533600748      0.295808706528412
Au      6.125261745239467      7.421212999343194      0.377675954343495
Au      3.295732734157880      5.937621918435638      4.832372264032164
Au      4.144987244161042      7.750600943896014      6.936974993125332
Au      5.247171186431115      5.074111341940307      6.817261647454752
Au      5.996684087609871      6.994052171719829      4.784326350297264
Au      3.392762076517446      5.827017150002155      8.910456407624501
Au      4.237466998995078      7.661629604002878     10.963826203810768
Au      5.346566331528578      4.976546283984976     10.912194698155345
Au      6.105165964350384      6.926642031392998      8.877866974285487
Au      3.507899091897126      5.767859052577304     13.017840496353582
Au      4.343363875204447      7.565447334855843     15.025476321082039
Au      6.248626740955493      6.983209697772401     17.182405818174058
Au      4.586717761861926      2.525398519153098     17.177287219245969
Au      3.517464867025400      5.630392782931446     17.057232322825033
Au      5.479253506213222      4.867090395251243     14.996730072922485
Au      8.857607977160766      8.423968326102184      0.660566603838505
Au      7.174087185162248     15.423512101440924      2.623523905822305
Au      6.742970099003716      8.879082655623066      2.730078333966436
Au      6.945867311147672     11.410393116693552      3.019955934225302
Au      4.947027965491986      9.644810012606344      4.897501449288830
Au      5.799107452468661     11.490891172458728      6.947095350138902
Au      6.843373939654469      8.815417159405177      6.838593365632677
Au      7.564762827396629     10.759120416643581      4.845014554106476
Au      5.051497844295953      9.545107485325222      8.950352020560116
Au      5.887204008556655     11.412249237436203     11.013173038926398
Au      6.950414036620907      8.745188944480725     10.949052545165026
Au      7.722893033237379     10.656473027640933      8.909988062130195
Au      5.109712611837743      9.474377803490530     13.025959856781364
Au      6.297641564149413     11.334332426996086     15.201377456047673
Au      6.983216379589087      8.700837556280694     15.023810759047766
Au      7.779396554888247     10.565089127234646     12.964150320006558
Au      7.276832875251780      4.054907772357517     16.797322844484189
Au      8.173266128378490     10.543190481359231     16.848332615700649
Au      9.137816934816707     12.871125052186899      2.085003694860113
Au     10.049956518972984     16.728772698602636      2.892677919091044
Au     11.926330782829309     13.562970332537310      1.880583529500121
Au      6.478969634007634     13.440197036035260      4.933429005658668
Au      7.368325849462873     15.259106108868645      6.951568855036898
Au      8.448922060891142     12.616823970380262      6.844902042684794
Au     10.998414201474933     13.956547815194648      3.971065785669960
Au      6.592579258466818     13.330789941841910      8.980887061954707
Au      7.487006280177673     15.176880332253198     11.010227540737015
Au      8.567300011886484     12.506923133070588     10.925729059819302
Au      9.294684192847830     14.437850764969616      8.943765849408759
Au      6.729340990347477     13.238906339275223     13.079290150706777
Au      7.388300699195464     15.264795751458577     15.060331257132225
Au      8.451680535811061     12.617112310005558     14.956372231903654
Au      9.357500071392868     14.293212791412660     12.970858905147942
Au      6.934437816164936     13.480184870657402     17.035514533341665
Au      5.523159423358704     16.064255239521941      9.058709676729336
Au     10.679496070807918     15.638902616011576      6.637248726836630
Au     12.680743818027693     17.634902349686449      6.813640618517607
Au      9.982210464762181     16.172498963472023     10.754932034969285
Au      8.167631828732159     17.229388369138640      8.813330949012649
Au      6.105038671476372      2.768252818015332      2.798028406980805
Au      3.634909365919333      1.343952795538856      6.739484984012952
Au      6.265202689065088      2.376970160737514      6.743618400285881
Au      7.324861977053470     -0.263898887519580      6.649384066239179
Au      8.121602502100380      1.620467570660258      4.661094979346984
Au      5.550577444797956      0.484123896123086      8.745624769499463
Au      6.384886275860083      2.317300086458301     10.819777577802666
Au      7.427442242124831     -0.350557634715657     10.764589282761749
Au      8.215298064666086      1.581132801943029      8.713357215925475
Au      5.681778117258367      0.435301030306082     12.822219156897269
Au      6.420837160090474      2.401652846186517     14.773556333169854
Au      8.372920530353275      1.461027449977240     12.810875589105942
Au      7.733984386301726     11.071726069538734      0.763499095501901
Au      7.793484404476086      6.222658417531096      2.660605983079989
Au      8.875371832624909      3.528318391468221      2.601797983914057
Au      9.622357430883472      5.476625677783775      0.587126394004490
Au      7.026832130242643      4.296160625388877      4.707060504499577
Au      7.909130890986403      6.152079337974548      6.751645614154248
Au      8.979189398563827      3.471513024699854      6.684183465720600
Au      9.719870760627112      5.393883752449836      4.651382098066548
Au      7.165499819039693      4.232184682804330      8.781450453031651
Au      8.012071706923896      6.088825771870647     10.832941973284042
Au      9.084805830514162      3.408599916536749     10.747664013489736
Au      9.860841690661610      5.313153257221736      8.738325270180063
Au      7.262365948203801      4.168404205149869     12.876432612234126
Au      8.134588486176387      6.016990140243030     14.894735645178230
Au      9.187343426149843      3.292314086158851     14.902834189537147
Au      9.919778337680686      5.274817388770667     12.827072122232519
Au      9.304813973155197      3.530347532606676     18.807043038792827
Au     10.215282606058535      5.216986917430626     16.648768083377181
Au      9.423510024350330     10.021154460963237      2.697723262504900
Au     10.623042932770709      7.996350236326644     -1.538543673691380
Au     10.476909653518423      7.280998183241469      2.582477998694691
Au     13.152888112820506      8.390105984894594      2.550517954695619
Au      8.634762532767875      8.040575317989127      4.710841694525301
Au      9.509662904524497      9.885053771082623      6.799254952622755
Au     10.574204357642843      7.213520275725249      6.708106729284432
Au     11.286600677221283      9.180602255136435      4.619895694136786
Au      8.757836366359413      7.977193851923186      8.829820096590607
Au      9.602570070363395      9.817306372614180     10.885959545653444
Au     10.684937770544499      7.137361552343514     10.788244183562668
Au     11.447699083449461      9.060999418401359      8.760428440584535
Au      8.908724914965203      7.917622731908353     12.886367388940455
Au      9.802480384214640      9.786733169244101     14.973832719804424
Au     13.875652535806831      3.523115414434155     17.053726028626212
Au     11.561755483659773      8.994696718345139     12.802590732890231
Au      9.592577010582506      9.624022249162815     18.771862815704001
Au     11.630439884575583      8.942969269832053     16.941602941799630
Au      9.190585151724884     14.509515010325638      4.845764036155968
Au     12.063915062033789     11.060509693995847      2.636094090450710
Au     13.934170641875742     10.305491652070486      0.506453822630241
Au     10.302898133959744     11.843106031218158      4.755128211932627
Au     11.120438903251362     13.656293602797160      6.845506434240584
Au     12.162127242165727     10.963435796630371      6.768221952486878
Au     12.989995149488234     12.953746473373796      4.766281903060992
Au     10.410588105524438     11.743977903917484      8.819880384393707
Au     11.165873955228117     13.523011023569255     10.908459391553514
Au     12.313630944229068     10.892834967866683     10.769402129975099
Au     13.087430859220323     12.845521786804705      8.833769748485464
Au     10.528610730357077     11.668347479267005     12.880933592460295
Au     11.421037434338144     13.533167053730685     14.968199729616442
Au     12.418680269702788     10.848240947213819     14.888585427816402
Au     13.953064870584733     14.684915919191690     10.788404131587328
Au     10.694059935154302     11.746089346768045     16.796535289918399
Au     12.393959505878927     15.785912884028765      4.666145437984746
Au     13.811137958875333     14.782441412008842      6.759480079344502
Au     12.290263983249336     15.595332700553392      8.687107881769743
Au     15.641745098376884     13.671979659526007      8.882917779479309
Au     11.817426613521029     15.675561632456901     12.807785210852275
Au      9.995014171450727      0.645145319641033      2.579638959235158
Au      9.492444392075022     -0.985224635074098      4.459001941232705
Au     10.026549470994727      0.830923850481445      6.600973040556508
Au     11.917348768771030      0.074593019012451      4.550213047294723
Au      9.331080821053176     -1.259751595386626      8.454429113643997
Au     10.155539329757907      0.744560568283707     10.657181657034888
Au     11.936193000767796     -0.052128423189643      8.570022849953890
Au      9.451481801549312     -0.991346970148124     12.775250324956794
Au     10.407129100985111      0.596169677991041     14.836253922033142
Au     14.933014899547311      0.965370955096004     12.844223567863136
Au      6.744631391071166      4.625954592949841      0.234297638476664
Au     11.535387916933495      4.619068047834147      2.550777639304009
Au     10.321806972514489      2.641263240583578      0.381735782638888
Au     10.775502106608645      2.712639465422239      4.553498584859960
Au     11.651854412289138      4.568809853072877      6.607385696578766
Au     12.739306453691949      1.895525990233077      6.543031485123891
Au     13.474986821268518      3.788060750668244      4.545032702157149
Au     10.943122245700584      2.630714170668468      8.645103311432079
Au     11.767607361083975      4.502259695500470     10.719089485509855
Au     12.823751674372541      1.835529379634144     10.628017423816576
Au     13.586137809402169      3.725641831510888      8.565927834888646
Au     11.010053591056980      2.581083859385464     12.743190877256760
Au     11.858839751292317      4.480100637317323     14.801433875119777
Au     13.195364600330445      1.988049960162268     14.667959780076460
Au     13.643859751938010      3.753415347123242     12.630084377368846
Au     11.169140016488040      2.683295747967775     16.870420986469913
Au     12.246572601815652      6.683360971162097      0.456047886641105
Au     12.584353130172421      1.925061874617542      2.120056013974742
Au     14.196183256568919      5.690675498152349      2.459977745597445
Au     12.375910258900005      6.458238600769333      4.620933131323937
Au     13.279783533431520      8.303786865787801      6.613028273129058
Au     14.282704819838433      5.625042245969541      6.573230657112271
Au     15.089705801718690      7.553288405509281      4.562545248833018
Au     12.534967051169007      6.397956360907884      8.628576435842200
Au     13.377086269546183      8.212177785783080     10.695058203786022
Au     14.444611788941007      5.508990932243993     10.626709974472535
Au     15.184007515089716      7.447076636378754      8.624309150286111
Au     12.648789653510285      6.316460928210333     12.739527519533402
Au     13.532534428846628      8.149735528902088     14.794476473117316
Au     18.217907179063833      3.790147023625700      6.543597815183825
Au     15.301512230035261      7.442725405803563     12.629296164607791
Au     12.772132000938470      6.530519723566754     16.739899407137166
Au     15.005709508361665      8.190568083589616      0.328031540770343
Au     14.756384878731524     12.108573085578191      2.558307667121678
Au     15.810580486259964      9.488796137138753      2.464900129173822
Au     14.001290521297621     10.217042886313825      4.604383906295742
Au     14.868106239796475     12.058992524672419      6.646746686686926
Au     15.943945411617426      9.424606631810471      6.501694056934141
Au     16.686640124458098     11.295033997631609      4.544340738874995
Au     14.131828622161892     10.135486059191695      8.686557094723108
Au     16.535521696915733     11.297967160219768      8.577588234248610
Au     17.857146358949898      8.576588642535022      8.546647872213128
Au     18.635905183529875     10.425982349699074      6.423512646057956
Au     14.218300054036678     10.049657755610790     12.788726687101244
Au      9.657141817758685     14.412683373426393     17.193794078136769
Au     17.198016540135924      6.645374543827034     10.567721338246058
Au     16.130292954467659      9.264082452817584     10.581644724307610
Au     14.186860352754715      9.679645950931000     17.015279972530781
Au     15.651276271323699     14.015588443702633      4.360885701551942
Au     11.280259911167096     18.006757211524810      8.664380881458177
Au     16.238996990640427      9.128845121485066     14.997476106829613
Au     14.578402433549538      1.030611666078112      8.531044679884468
Au     15.414365766126076      2.942898393771880      6.449397745785769
Au     12.281152970041203     -0.127096909547028     12.705570267095077
Au     15.521943128192751      2.872196508889684     10.574699782120650
Au     14.595323603750387      5.559198871112098     14.714313020760624
Au     16.095349656323421      4.867224312201706      4.401136277830288
Au     16.996060475935792      6.743944529318404      6.477894557026351
Au     16.283865367869240      4.817733585049991      8.534069714724103
Au     19.091688203088939      5.706182331233500      8.592524154481621
Au     16.389590208282304      4.741684590890956     12.571987211997122
Au     16.558078744314631      6.904689623128841      2.439150240002769
Au     19.366488286923193      7.870076262593829      6.176706779234216
Au     15.020077825120710     11.968154869153702     10.695879110640297
