55

Au     -2.030284459394663     -2.030163902828353     -4.095960673511541
Au     -2.029169764513875     -4.107164355504055     -2.030300974553568
Au     -4.103290469670370     -2.026359493542923     -2.030630091716327
Au     -3.938139267865284     -3.952385830100613      0.001723024196917
Au     -2.026308393087301     -2.029712967908521      0.003274609914365
Au     -2.042648293699493     -4.097417156796874      2.042161306671429
Au     -4.120408471760437     -2.030240296125592      2.039424409364381
Au     -2.029036268431777     -2.024994413651486      4.113190404749234
Au     -3.936995575363289      0.005757662117189     -3.948314878870763
Au     -2.037423370909905      2.035745058626960     -4.105145437443280
Au     -2.023194194531226      0.002781679931590     -2.028335441081150
Au     -4.103350617019605      2.040044779190243     -2.032926735437462
Au     -4.178746453854748      0.008761572250036      0.003001465732902
Au     -2.029801697365321      2.034316709617904     -0.002651471643841
Au     -2.038021642123383      0.009485978461612      2.028293653634369
Au     -4.104963115607770      2.044348056514737      2.032602626195286
Au     -3.954164679967655      0.007114071978091      3.949986685237576
Au     -2.046557565907495      2.051786611244530      4.119617305618756
Au     -2.038476168486979      4.114216530857841     -2.036793476222136
Au     -3.940896572146505      3.955774954181758     -0.003403723213919
Au     -2.031308707698376      4.113197871579792      2.026418068662297
Au      0.019687358760066     -3.948462872666213     -3.948353402264317
Au      2.039075479024989     -2.049060633089864     -4.102997869657960
Au      2.037501210329144     -4.098415317233227     -2.020465340444328
Au      0.006094262881528     -2.026147447627482     -2.024196495466041
Au     -0.005437747701171     -4.175937664259583      0.012590568766510
Au      2.029467395312481     -2.021552999457533      0.015044886839517
Au      2.030338603576857     -4.101781187926406      2.056071533216856
Au     -0.000951713962198     -2.016477854156227      2.040701438018208
Au      0.006473732689575     -3.944718407553425      3.958291866053591
Au      2.034540482784387     -2.022517529960446      4.118311239745717
Au      0.003054785611961      0.000670261441209     -4.174492127435337
Au      2.039610338541559      2.033953751045083     -4.106903085614070
Au      2.038591070933674      0.000577505390067     -2.017330695513187
Au      0.003974493112040      2.023350035070389     -2.037641218121118
Au      0.003681591404798      0.007671778010371      0.006857305702315
Au      2.031953759319505      2.037598889613825      0.002378320445734
Au      2.030034265409743      0.012827918474562      2.035632331433368
Au      0.000147444360647      2.040857158699923      2.031206562099078
Au     -0.006973404172539      0.014686815417574      4.180409565199125
Au      2.030138074985395      2.046073667120195      4.104088675258581
Au      0.012836887141442      3.947529756744207     -3.950589906446884
Au      2.033980712920075      4.108188117903437     -2.033072644547753
Au      0.002078630762513      4.184987218884650     -0.003155685297656
Au      2.041665443035254      4.125015785770256      2.037825572295928
Au      0.001733239475305      3.961607835721767      3.954280780885768
Au      4.100476823701262     -2.042244549762956     -2.017012183087110
Au      3.955320394566908     -3.950532615089999      0.027301119339039
Au      4.103104283107744     -2.024074595459467      2.054433445156679
Au      3.966695472161564     -0.008569815269589     -3.946508766402933
Au      4.115451548383401      2.031187155567040     -2.040805780031173
Au      4.167520776133878      0.004003754311790      0.004330788948077
Au      4.105764330113563      2.049886612060570      2.040208149407772
Au      3.957532034775352      0.013846965775154      3.960671946771579
Au      3.964209571133635      3.961508221000426      0.000711395505717
