22

Au     -4.325944229904092     -2.039270000000000     -1.441980938563509
Au     -4.325944229904092      2.039270000000000     -1.441980938563509
Au     -2.883962584233801     -4.078539000000000     -2.883962584233800
Au     -1.441980938563510     -2.039270000000000     -4.325944229904091
Au     -0.000000000000001     -4.078539000000000     -2.883963291340581
Au     -1.441981645670292     -2.039270000000000     -1.441981645670290
Au      1.441981645670291     -2.039270000000000     -1.441981645670290
Au     -2.883962584233801      0.000000000000000     -2.883962584233800
Au     -1.441980938563510      2.039270000000000     -4.325944229904091
Au     -0.000000000000001      0.000000000000000     -2.883963291340581
Au     -1.441981645670292      2.039270000000000     -1.441981645670290
Au      1.441981645670291      2.039270000000000     -1.441981645670290
Au     -2.883962584233801      4.078539000000000     -2.883962584233800
Au     -0.000000000000001      4.078539000000000     -2.883963291340581
Au      1.441980938563509     -2.039270000000000     -4.325944229904091
Au      2.883962584233800     -4.078539000000000     -2.883962584233799
Au      4.325944229904091     -2.039270000000000     -1.441980938563509
Au     -0.000000000000001      0.000000000000000     -5.767925168467600
Au      1.441980938563509      2.039270000000000     -4.325944229904091
Au      2.883962584233800      0.000000000000000     -2.883962584233799
Au      4.325944229904091      2.039270000000000     -1.441980938563509
Au      2.883962584233800      4.078539000000000     -2.883962584233799
