27

Au     -4.344776907583719     -2.035795188733879     -1.465467787949264
Au     -2.879933249872590     -4.107166337455029     -0.000056476656901
Au     -4.344865598761804      2.035228395543582     -1.466879851511989
Au     -2.870640477978736      0.000371707797878     -0.000003030826331
Au     -2.880624383732006      4.106441954600029     -0.000056843016112
Au     -2.794733279207988     -3.952488735194505     -2.794600768679155
Au     -1.466769145817679     -2.034862253666803     -4.345078383185809
Au      0.000095630233496     -4.108261622703848     -2.878854256361326
Au     -1.435121670506247     -2.029766199197272     -1.435603466293619
Au     -0.000063081272729     -4.177030825849470     -0.000000853640955
Au      1.435093358103180     -2.029507994901041     -1.435156013667114
Au     -2.954084327039793     -0.000045086056304     -2.953916121552926
Au     -1.464761986409092      2.036286548075068     -4.344561061076905
Au     -0.000109909116617      0.000001697662513     -2.870235702548057
Au     -1.435182114477260      2.029480816718888     -1.435140056345197
Au      1.435030212851777      2.029793221192965     -1.435620423922106
Au     -2.794479144736844      3.952151720741949     -2.794373229079953
Au     -0.000422142002302      4.108261187337223     -2.878853379436876
Au      1.463763426925172     -2.036538384206571     -4.344356154052952
Au      2.794509754073683     -3.952195494438774     -2.794612666901033
Au      4.344555234159706     -2.035478421686599     -1.466208190419940
Au     -0.000000059346119     -0.000000035854535     -5.588909178615430
Au      1.465775584938677      2.035116637732863     -4.344872822871893
Au      2.953745486544192      0.000045387409105     -2.953796001091245
Au      4.344461287641193      2.036049056049650     -1.464791177540041
Au      5.589394726771022      0.000020532926250     -0.000205651106124
Au      2.794763156176312      3.952533389583901     -2.794835180938709
