55

Au -4.06057 -4.06033 -8.19192
Au -4.05834 -8.21433 -4.0606
Au -8.20658 -4.05272 -4.06126
Au -7.87628 -7.90477 0.00344605
Au -4.05262 -4.05943 0.00654922
Au -4.0853 -8.19483 4.08432
Au -8.24082 -4.06048 4.07885
Au -4.05807 -4.04999 8.22638
Au -7.87399 0.0115153 -7.89663
Au -4.07485 4.07149 -8.21029
Au -4.04639 0.00556336 -4.05667
Au -8.2067 4.08009 -4.06585
Au -8.35749 0.0175231 0.00600293
Au -4.0596 4.06863 -0.00530294
Au -4.07604 0.018972 4.05659
Au -8.20993 4.0887 4.06521
Au -7.90833 0.0142281 7.89997
Au -4.09312 4.10357 8.23923
Au -4.07695 8.22843 -4.07359
Au -7.88179 7.91155 -0.00680745
Au -4.06262 8.2264 4.05284
Au 0.0393747 -7.89693 -7.89671
Au 4.07815 -4.09812 -8.206
Au 4.075 -8.19683 -4.04093
Au 0.0121885 -4.05229 -4.04839
Au -0.0108755 -8.35188 0.0251811
Au 4.05893 -4.04311 0.0300898
Au 4.06068 -8.20356 4.11214
Au -0.00190343 -4.03296 4.0814
Au 0.0129475 -7.88944 7.91658
Au 4.06908 -4.04504 8.23662
Au 0.00610957 0.00134052 -8.34898
Au 4.07922 4.06791 -8.21381
Au 4.07718 0.00115501 -4.03466
Au 0.00794899 4.0467 -4.07528
Au 0.00736318 0.0153436 0.0137146
Au 4.06391 4.0752 0.00475664
Au 4.06007 0.0256558 4.07126
Au 0.000294889 4.08171 4.06241
Au -0.0139468 0.0293736 8.36082
Au 4.06028 4.09215 8.20818
Au 0.0256738 7.89506 -7.90118
Au 4.06796 8.21638 -4.06615
Au 0.00415726 8.36997 -0.00631137
Au 4.08333 8.25003 4.07565
Au 0.00346648 7.92322 7.90856
Au 8.20095 -4.08449 -4.03402
Au 7.91064 -7.90107 0.0546022
Au 8.20621 -4.04815 4.10887
Au 7.93339 -0.0171396 -7.89302
Au 8.2309 4.06237 -4.08161
Au 8.33504 0.00800751 0.00866158
Au 8.21153 4.09977 4.08042
Au 7.91506 0.0276939 7.92134
Au 7.92842 7.92302 0.00142279
