55

Au     -3.200818624532159     -3.106706246381563     -1.585204603261685
Au     -1.486122063947075     -3.792806867663576      0.565830985541865
Au     -3.897774766840757     -2.579288917292287      1.136950321750092
Au     -2.076799272582857     -2.905624608494590      3.233494306508387
Au     -1.004056523337403     -1.096665406363921      1.477202380062332
Au     -0.019603918734631     -1.267573296981114      4.132737043821245
Au     -2.568315704593153     -0.076218949406860      3.510258994342047
Au     -0.805341035668990      0.432067638498081      6.133809607279811
Au     -4.633059151196754     -0.993879015287946     -2.692009856685710
Au     -3.180841152294426      1.144929849383005     -3.876580826644663
Au     -2.652722167807822     -0.423422489788963     -0.803535039726637
Au     -4.694070697588998      1.446033623277786     -1.396693280733708
Au     -3.958791577721103      1.371580237944338      1.293026735759098
Au     -1.843614550279212      2.324358088199818     -0.847350671824645
Au     -1.306976989422514      1.969414368672046      1.862037235468685
Au     -3.310876459838912      3.972475958454445      2.749940824181539
Au     -2.184955471542282      2.413614972572572      4.752698552335328
Au     -0.512753825909430      4.151366389229176      3.404461374600916
Au     -3.643634383561723      3.638649742814744     -2.744868731672748
Au     -4.021434186967122      3.821759235379015     -0.005625275932275
Au     -1.430785671750183      4.802764578830510      0.894189400655718
Au     -0.752085389141594     -4.323415625551846     -2.088632660554180
Au      0.598794432421907     -2.443223858458451     -3.808483625176115
Au      1.394352002806395     -3.989618126599478     -0.406080439941642
Au     -0.211245900990917     -1.766100108491778     -1.203715224736285
Au      0.561408446800038     -3.461128236652949      2.493234660040735
Au      1.673707171566868     -1.495732022187692      0.766043995875488
Au      3.389836759259250     -1.664432130539994      3.990713971918703
Au      1.108268675990382      0.672186565121319      2.522222654222844
Au      1.874150813362687      0.497280043609880      5.100666419161856
Au      3.916588299776524      0.985831599494873      3.271308921095142
Au     -1.949831464693635     -1.376404745067143     -3.372571796320240
Au      1.838424647729769     -0.111014024751715     -4.581931293912105
Au      2.136040439748963     -0.458299241699738     -1.853953251875199
Au     -0.263681959875235      0.848544479393278     -2.627039561681766
Au      0.330039037228730      0.756219549630943     -0.093881261260915
Au      1.840936320665886      2.491897294888992     -1.607895020696922
Au      3.059733363632061      1.062243591515676      0.598346577338986
Au      1.080422733873973      3.180997085647027      1.008785250387198
Au      2.001430741127032      2.992842944543431      3.769499814556204
Au      3.974045484509204      3.440000359838830      1.786731081094492
Au     -0.805341035668990      0.432067638498081     -5.133809607279811
Au      1.266930010957390      2.649171399771457     -4.365821648324427
Au     -1.314875737205140      4.882872970927099     -1.911855572712410
Au      3.010451496673133      5.072642275490631     -0.356510158657389
Au      2.020243732693451      5.323415625551846      2.338858117470197
Au      3.714026077561902     -2.510976378835271     -0.856783170698852
Au      3.226996346565960     -3.535945283195399      1.735024017374271
Au      4.593403578065812     -1.171248587623750      1.516404963765178
Au      3.459349810196294     -2.290706263879810     -3.671890701857706
Au      3.757201573830887      1.405339663421200     -3.283538538164980
Au      4.951448550394437     -0.020467532528250     -1.218057127790389
Au      4.530581458800967      2.830864512411386     -0.951565538379415
Au      5.694070697588998      1.376119388749762      1.090335104771920
Au      3.372888589361481      4.171841554374810     -3.093209420998155
