28

Au     -3.503461562886657     -3.646715251152690     -1.706944956059490
Au     -4.935702089551252     -1.533888020059073     -2.813750209483516
Au     -3.483484090648923      0.604920844611879     -3.998321179442468
Au     -2.955365106162319     -0.963431494560089     -0.925275392524442
Au     -4.996713635943496      0.906024618506659     -1.518433633531514
Au     -2.146257488633709      1.784349083428691     -0.969091024622450
Au     -3.946277321916221      3.098640738043617     -2.866609084470553
Au     -4.324077125321620      3.281750230607889     -0.127365628730081
Au     -1.054728327496091     -4.863424630322973     -2.210373013351985
Au      0.296151494067410     -2.983232863229578     -3.930223977973921
Au      1.091709064451897     -4.529627131370605     -0.527820792739447
Au     -0.513888839345414     -2.306109113262905     -1.325455577534090
Au     -2.252474403048133     -1.916413749838269     -3.494312149118045
Au      1.535781709375271     -0.651023029522842     -4.703671646709910
Au      1.833397501394465     -0.998308246470865     -1.975693604673004
Au     -0.566324898229733      0.308535474622152     -2.748779914479571
Au      0.027396098874232      0.216210544859817     -0.215621614058720
Au      1.538293382311389      1.951888290117866     -1.729635373494728
Au     -1.107983974023487     -0.107941366273046     -5.255549960077616
Au      0.964287072602892      2.109162395000331     -4.487562001122233
Au     -1.617518675559637      4.342863966155972     -2.033595925510216
Au      2.707808558318636      4.532633270719504     -0.478250511455195
Au      3.411383139207405     -3.050985383606397     -0.978523523496657
Au      3.156706871841797     -2.830715268650936     -3.793631054655511
Au      3.454558635476390      0.865330658650074     -3.405278890962785
Au      4.648805612039939     -0.560476537299377     -1.339797480588195
Au      4.227938520446469      2.290855507640259     -1.073305891177220
Au      3.070245651006983      3.631832549603683     -3.214949773795960
