55

Au      0.307771931968175      0.327334980554256      6.499920283476919
Au     -0.698156012061571      4.015975152288567      4.114065385830628
Au     -2.776308383432040      2.207028168090694      3.551424425682192
Au     -2.858353971355965      4.585842873716661      2.204289485352418
Au     -0.841562567349774      2.657688177599775      1.659372581632937
Au     -0.340210615227449      5.599144185296259      1.778580924120024
Au     -1.695744933147597      4.509707764935973     -0.372592798442823
Au      0.511862302927828      5.979974921251882     -0.979673996805318
Au     -2.149826114202216      0.098586085332428      5.192072936114815
Au     -2.579732960430332     -2.381624320481213      3.663576631496099
Au     -1.692340518956655     -0.029374174867908      2.382581121838790
Au     -4.097935659469254     -0.675027540819653      1.080322338817751
Au     -3.161325545698492      2.059678059697831      0.694214251051243
Au     -1.735452521542598     -0.155694677881289     -0.196375895103298
Au     -0.806015571261326      2.192732204126204     -1.069236621732808
Au     -4.763818519387199      0.729470103935859     -1.311514637959518
Au     -3.300196807145994      3.018727223307729     -2.121689429187464
Au     -1.450584662760060      1.978270291273498     -4.011337719113215
Au     -2.410444535585396     -2.719372861331697      0.725302781881264
Au     -3.140425489037127     -1.745193349927702     -1.676263272165597
Au     -1.764207626893654     -1.018455025306311     -4.037321141557045
Au      1.456342189816963      2.866796841998235      5.509195456898085
Au      2.530471222569624      0.320119463834037      4.904054595722228
Au      3.693853624652081      2.714184170211863      3.937316106186712
Au      0.814886528243506      1.423807390233429      3.176805863678852
Au      1.701999994789061      4.161921050147432      2.876154688194826
Au      2.941110173014931      2.102257999477186      1.416310201796243
Au      4.344035761871601      4.550664811166111      1.496939077457651
Au      1.075425465215395      3.651846461666001      0.301698291423775
Au      2.252832927242054      6.294881684114392      0.997110191680405
Au      2.984559056671440      4.523657816651919     -1.209402510644538
Au      0.183917548115940     -1.077693168654300      4.189133033750386
Au      1.931035683770887     -3.089539513821267      3.468175991796389
Au      2.412804536188650     -0.678280901431182      2.391961299520589
Au     -0.062047844388412     -1.913664792747762      1.635465288833878
Au      0.895566402731453      0.427924619229992      0.406401000633517
Au      2.476135386135974     -1.198149737172905     -1.688873856080993
Au      2.378841102693399      1.770035117135665     -1.444025750502381
Au      0.242243098293729      0.336277576437657     -2.525460879352733
Au      0.482205333321813      3.783713794345795     -2.563747510045163
Au      2.786706220250253     -0.016136563257316     -4.007523733411077
Au      0.954255879900434     -5.294881684114392      2.304880318543131
Au      1.389463058064848     -4.050930435129814     -2.036889672855557
Au     -0.308367060978624     -2.085889827368474     -1.339477688484652
Au      0.816719030264496     -1.961798461613803     -3.895195437762603
Au      0.307771931968174      0.327334980554255     -5.499920283476919
Au      4.706870944877030      0.211706269456062      3.264669044531856
Au      5.763818519387199      2.245619886236282      1.827323594272091
Au      4.813933070405398      2.746701973849820     -0.633811668256726
Au      4.090666229694795     -2.028347433781178      4.614274483434755
Au      4.487055720298022     -2.294101257953618      1.856086998676880
Au      4.112916366326300      0.070726102733955      0.289370315943500
Au      5.399418207238401     -1.453314234561903     -3.997120225150497
Au      4.880664450630995      0.474330564542931     -2.214656758820158
Au      3.275907937068594     -3.192912618702826     -3.743936348928599
